NAT01
     RDKit          2D

 18 20  0  0  0  0  0  0  0  0999 V2000
   -6.3914    0.0591    0.0000 O   0  0  0  0  0  0  0  0  0  0  0  0
   -5.0796    0.7866    0.0000 C   0  0  0  0  0  0  0  0  0  0  0  0
   -5.0538    2.2864    0.0000 O   0  0  0  0  0  0  0  0  0  0  0  0
   -3.7937    0.0143    0.0000 C   0  0  0  0  0  0  0  0  0  0  0  0
   -3.6626   -1.4800    0.0000 C   0  0  0  0  0  0  0  0  0  0  0  0
   -2.2010   -1.8171    0.0000 S   0  0  0  0  0  0  0  0  0  0  0  0
   -1.4287   -0.5311    0.0000 C   0  0  0  0  0  0  0  0  0  0  0  0
    0.0656   -0.4001    0.0000 C   0  0  0  0  0  0  0  0  0  0  0  0
    1.0499   -1.5319    0.0000 N   0  0  0  0  0  0  0  0  0  0  0  0
    2.4305   -0.9455    0.0000 C   0  0  0  0  0  0  0  0  0  0  0  0
    3.7901   -1.5791    0.0000 C   0  0  0  0  0  0  0  0  0  0  0  0
    5.0187   -0.7185    0.0000 C   0  0  0  0  0  0  0  0  0  0  0  0
    4.8876    0.7758    0.0000 C   0  0  0  0  0  0  0  0  0  0  0  0
    6.1161    1.6364    0.0000 O   0  0  0  0  0  0  0  0  0  0  0  0
    3.5280    1.4094    0.0000 C   0  0  0  0  0  0  0  0  0  0  0  0
    2.2995    0.5488    0.0000 C   0  0  0  0  0  0  0  0  0  0  0  0
    0.8378    0.8859    0.0000 S   0  0  0  0  0  0  0  0  0  0  0  0
   -2.4131    0.6007    0.0000 N   0  0  0  0  0  0  0  0  0  0  0  0
  1  2  2  0
  2  3  1  0
  4  2  1  6
  4  5  1  0
  5  6  1  0
  6  7  1  0
  7  8  1  0
  8  9  2  0
  9 10  1  0
 10 11  1  0
 11 12  2  0
 12 13  1  0
 13 14  1  0
 13 15  2  0
 15 16  1  0
 16 17  1  0
  7 18  2  0
 18  4  1  0
 17  8  1  0
 16 10  2  0
M  END
>  <compound_id>  (1) 
NAT01

>  <name>  (1) 
D-Luciferin

>  <structural_class>  (1) 
Natural luciferin and its stereoisomers

>  <subfamily>  (1) 
benzothiazole

>  <smiles>  (1) 
O=C(O)[C@H]1CSC(c2nc3ccc(O)cc3s2)=N1

>  <inchi>  (1) 
InChI=1S/C11H8N2O3S2/c14-5-1-2-6-8(3-5)18-10(12-6)9-13-7(4-17-9)11(15)16/h1-3,7,14H,4H2,(H,15,16)/t7-/m1/s1

>  <inchikey>  (1) 
BJGNCJDXODQBOB-SSDOTTSWSA-N

>  <molecular_formula>  (1) 
C11H8N2O3S2

>  <iupac_name>  (1) 
(4S)-2-(6-hydroxy-1,3-benzothiazol-2-yl)-4,5-dihydro-1,3-thiazole-4-carboxylic acid

$$$$
NAT02
     RDKit          2D

 18 20  0  0  0  0  0  0  0  0999 V2000
   -6.3914    0.0591    0.0000 O   0  0  0  0  0  0  0  0  0  0  0  0
   -5.0796    0.7866    0.0000 C   0  0  0  0  0  0  0  0  0  0  0  0
   -5.0538    2.2864    0.0000 O   0  0  0  0  0  0  0  0  0  0  0  0
   -3.7937    0.0143    0.0000 C   0  0  0  0  0  0  0  0  0  0  0  0
   -3.6626   -1.4800    0.0000 C   0  0  0  0  0  0  0  0  0  0  0  0
   -2.2010   -1.8171    0.0000 S   0  0  0  0  0  0  0  0  0  0  0  0
   -1.4287   -0.5311    0.0000 C   0  0  0  0  0  0  0  0  0  0  0  0
    0.0656   -0.4001    0.0000 C   0  0  0  0  0  0  0  0  0  0  0  0
    1.0499   -1.5319    0.0000 N   0  0  0  0  0  0  0  0  0  0  0  0
    2.4305   -0.9455    0.0000 C   0  0  0  0  0  0  0  0  0  0  0  0
    3.7901   -1.5791    0.0000 C   0  0  0  0  0  0  0  0  0  0  0  0
    5.0187   -0.7185    0.0000 C   0  0  0  0  0  0  0  0  0  0  0  0
    4.8876    0.7758    0.0000 C   0  0  0  0  0  0  0  0  0  0  0  0
    6.1161    1.6364    0.0000 O   0  0  0  0  0  0  0  0  0  0  0  0
    3.5280    1.4094    0.0000 C   0  0  0  0  0  0  0  0  0  0  0  0
    2.2995    0.5488    0.0000 C   0  0  0  0  0  0  0  0  0  0  0  0
    0.8378    0.8859    0.0000 S   0  0  0  0  0  0  0  0  0  0  0  0
   -2.4131    0.6007    0.0000 N   0  0  0  0  0  0  0  0  0  0  0  0
  1  2  2  0
  2  3  1  0
  4  2  1  1
  4  5  1  0
  5  6  1  0
  6  7  1  0
  7  8  1  0
  8  9  2  0
  9 10  1  0
 10 11  1  0
 11 12  2  0
 12 13  1  0
 13 14  1  0
 13 15  2  0
 15 16  1  0
 16 17  1  0
  7 18  2  0
 18  4  1  0
 17  8  1  0
 16 10  2  0
M  END
>  <compound_id>  (2) 
NAT02

>  <name>  (2) 
L-Luciferin

>  <structural_class>  (2) 
Natural luciferin and its stereoisomers

>  <subfamily>  (2) 
benzothiazole

>  <smiles>  (2) 
O=C(O)[C@@H]1CSC(c2nc3ccc(O)cc3s2)=N1

>  <inchi>  (2) 
InChI=1S/C11H8N2O3S2/c14-5-1-2-6-8(3-5)18-10(12-6)9-13-7(4-17-9)11(15)16/h1-3,7,14H,4H2,(H,15,16)/t7-/m0/s1

>  <inchikey>  (2) 
BJGNCJDXODQBOB-ZETCQYMHSA-N

>  <molecular_formula>  (2) 
C11H8N2O3S2

>  <iupac_name>  (2) 
(4R)-2-(6-hydroxy-1,3-benzothiazol-2-yl)-4,5-dihydro-1,3-thiazole-4-carboxylic acid

$$$$
AM01
     RDKit          2D

 19 21  0  0  0  0  0  0  0  0999 V2000
    6.5819    0.1754    0.0000 O   0  0  0  0  0  0  0  0  0  0  0  0
    5.2974   -0.5993    0.0000 C   0  0  0  0  0  0  0  0  0  0  0  0
    5.3260   -2.0990    0.0000 O   0  0  0  0  0  0  0  0  0  0  0  0
    3.9843    0.1259    0.0000 C   0  0  0  0  0  0  0  0  0  0  0  0
    3.7991    1.6144    0.0000 C   0  0  0  0  0  0  0  0  0  0  0  0
    2.3262    1.8982    0.0000 S   0  0  0  0  0  0  0  0  0  0  0  0
    1.6011    0.5851    0.0000 C   0  0  0  0  0  0  0  0  0  0  0  0
    0.1126    0.3999    0.0000 C   0  0  0  0  0  0  0  0  0  0  0  0
   -0.6125   -0.9131    0.0000 N   0  0  0  0  0  0  0  0  0  0  0  0
   -2.0854   -0.6293    0.0000 C   0  0  0  0  0  0  0  0  0  0  0  0
   -3.2819   -1.5339    0.0000 C   0  0  0  0  0  0  0  0  0  0  0  0
   -3.0967   -3.0225    0.0000 O   0  0  0  0  0  0  0  0  0  0  0  0
   -4.6636   -0.9501    0.0000 C   0  0  0  0  0  0  0  0  0  0  0  0
   -4.8488    0.5385    0.0000 C   0  0  0  0  0  0  0  0  0  0  0  0
   -6.2305    1.1223    0.0000 O   0  0  0  0  0  0  0  0  0  0  0  0
   -3.6523    1.4431    0.0000 C   0  0  0  0  0  0  0  0  0  0  0  0
   -2.2706    0.8592    0.0000 C   0  0  0  0  0  0  0  0  0  0  0  0
   -0.9122    1.4953    0.0000 S   0  0  0  0  0  0  0  0  0  0  0  0
    2.6259   -0.5103    0.0000 N   0  0  0  0  0  0  0  0  0  0  0  0
  1  2  2  0
  2  3  1  0
  2  4  1  0
  4  5  1  0
  5  6  1  0
  6  7  1  0
  7  8  1  0
  8  9  2  0
  9 10  1  0
 10 11  2  0
 11 12  1  0
 11 13  1  0
 13 14  2  0
 14 15  1  0
 14 16  1  0
 16 17  2  0
 17 18  1  0
  7 19  2  0
 19  4  1  0
 18  8  1  0
 17 10  1  0
M  END
>  <compound_id>  (3) 
AM01

>  <name>  (3) 
4'-Hydroxyluciferin

>  <structural_class>  (3) 
6'-Aminoluciferins, acyclic N-alkyl and pendant amine

>  <subfamily>  (3) 
benzothiazole

>  <smiles>  (3) 
O=C(O)C1CSC(c2nc3c(O)cc(O)cc3s2)=N1

>  <inchi>  (3) 
InChI=1S/C11H8N2O4S2/c14-4-1-6(15)8-7(2-4)19-10(13-8)9-12-5(3-18-9)11(16)17/h1-2,5,14-15H,3H2,(H,16,17)

>  <inchikey>  (3) 
OBNHARMUQMTOGF-UHFFFAOYSA-N

>  <molecular_formula>  (3) 
C11H8N2O4S2

>  <iupac_name>  (3) 
(4RS)-2-(4,6-dihydroxy-1,3-benzothiazol-2-yl)-4,5-dihydro-1,3-thiazole-4-carboxylic acid (racemic)

>  <stereochemistry>  (3) 
racemate

$$$$
AM02
     RDKit          2D

 25 28  0  0  0  0  0  0  0  0999 V2000
   -8.6284    1.1679    0.0000 O   0  0  0  0  0  0  0  0  0  0  0  0
   -7.1869    1.5828    0.0000 C   0  0  0  0  0  0  0  0  0  0  0  0
   -6.8255    3.0386    0.0000 O   0  0  0  0  0  0  0  0  0  0  0  0
   -6.1068    0.5419    0.0000 C   0  0  0  0  0  0  0  0  0  0  0  0
   -6.3141   -0.9437    0.0000 C   0  0  0  0  0  0  0  0  0  0  0  0
   -4.9652   -1.5999    0.0000 S   0  0  0  0  0  0  0  0  0  0  0  0
   -3.9243   -0.5198    0.0000 C   0  0  0  0  0  0  0  0  0  0  0  0
   -2.4387   -0.7271    0.0000 C   0  0  0  0  0  0  0  0  0  0  0  0
   -1.7332   -2.0508    0.0000 N   0  0  0  0  0  0  0  0  0  0  0  0
   -0.2562   -1.7888    0.0000 C   0  0  0  0  0  0  0  0  0  0  0  0
    0.9267   -2.7111    0.0000 C   0  0  0  0  0  0  0  0  0  0  0  0
    2.3169   -2.1478    0.0000 C   0  0  0  0  0  0  0  0  0  0  0  0
    2.5242   -0.6621    0.0000 C   0  0  0  0  0  0  0  0  0  0  0  0
    3.9144   -0.0988    0.0000 N   0  0  0  0  0  0  0  0  0  0  0  0
    5.0973   -1.0211    0.0000 C   0  0  0  0  0  0  0  0  0  0  0  0
    6.4875   -0.4578    0.0000 C   0  0  0  0  0  0  0  0  0  0  0  0
    6.6948    1.0278    0.0000 S   0  0  0  0  0  0  0  0  0  0  0  0
    7.3977    2.3530    0.0000 O   0  0  0  0  0  0  0  0  0  0  0  0
    8.1218    0.5658    0.0000 O   0  0  0  0  0  0  0  0  0  0  0  0
    5.5118    1.9501    0.0000 C   0  0  0  0  0  0  0  0  0  0  0  0
    4.1216    1.3868    0.0000 C   0  0  0  0  0  0  0  0  0  0  0  0
    1.3412    0.2602    0.0000 C   0  0  0  0  0  0  0  0  0  0  0  0
   -0.0490   -0.3032    0.0000 C   0  0  0  0  0  0  0  0  0  0  0  0
   -1.3978    0.3530    0.0000 S   0  0  0  0  0  0  0  0  0  0  0  0
   -4.6299    0.8039    0.0000 N   0  0  0  0  0  0  0  0  0  0  0  0
  1  2  2  0
  2  3  1  0
  4  2  1  6
  4  5  1  0
  5  6  1  0
  6  7  1  0
  7  8  1  0
  8  9  2  0
  9 10  1  0
 10 11  1  0
 11 12  2  0
 12 13  1  0
 13 14  1  0
 14 15  1  0
 15 16  1  0
 16 17  1  0
 17 18  2  0
 17 19  2  0
 17 20  1  0
 20 21  1  0
 13 22  2  0
 22 23  1  0
 23 24  1  0
  7 25  2  0
 25  4  1  0
 24  8  1  0
 23 10  2  0
 21 14  1  0
M  END
>  <compound_id>  (4) 
AM02

>  <name>  (4) 
6'-(1,1-dioxothiomorpholin-4-yl) luciferin

>  <structural_class>  (4) 
6'-Aminoluciferins, acyclic N-alkyl and pendant amine

>  <subfamily>  (4) 
benzothiazole

>  <smiles>  (4) 
O=C(O)[C@H]1CSC(c2nc3ccc(N4CCS(=O)(=O)CC4)cc3s2)=N1

>  <inchi>  (4) 
InChI=1S/C15H15N3O4S3/c19-15(20)11-8-23-13(17-11)14-16-10-2-1-9(7-12(10)24-14)18-3-5-25(21,22)6-4-18/h1-2,7,11H,3-6,8H2,(H,19,20)/t11-/m1/s1

>  <inchikey>  (4) 
SZVKBVBLVWGWCD-LLVKDONJSA-N

>  <molecular_formula>  (4) 
C15H15N3O4S3

>  <iupac_name>  (4) 
(S)-2-(6-(1,1-dioxidothiomorpholino)benzothiazol-2-yl)-4,5-dihydrothiazole-4-carboxylic acid

$$$$
AM03
     RDKit          2D

 23 25  0  0  0  0  0  0  0  0999 V2000
   -8.2652    0.6510    0.0000 O   0  0  0  0  0  0  0  0  0  0  0  0
   -6.8756    1.2158    0.0000 C   0  0  0  0  0  0  0  0  0  0  0  0
   -6.6699    2.7016    0.0000 O   0  0  0  0  0  0  0  0  0  0  0  0
   -5.6917    0.2947    0.0000 C   0  0  0  0  0  0  0  0  0  0  0  0
   -5.7410   -1.2045    0.0000 C   0  0  0  0  0  0  0  0  0  0  0  0
   -4.3304   -1.7146    0.0000 S   0  0  0  0  0  0  0  0  0  0  0  0
   -3.4093   -0.5307    0.0000 C   0  0  0  0  0  0  0  0  0  0  0  0
   -1.9101   -0.5800    0.0000 C   0  0  0  0  0  0  0  0  0  0  0  0
   -1.0688   -1.8219    0.0000 N   0  0  0  0  0  0  0  0  0  0  0  0
    0.3722   -1.4055    0.0000 C   0  0  0  0  0  0  0  0  0  0  0  0
    1.6459   -2.1977    0.0000 C   0  0  0  0  0  0  0  0  0  0  0  0
    2.9689   -1.4908    0.0000 C   0  0  0  0  0  0  0  0  0  0  0  0
    3.0182    0.0084    0.0000 C   0  0  0  0  0  0  0  0  0  0  0  0
    4.3412    0.7153    0.0000 N   0  0  0  0  0  0  0  0  0  0  0  0
    5.6149   -0.0770    0.0000 C   0  0  0  0  0  0  0  0  0  0  0  0
    6.9379    0.6299    0.0000 C   0  0  0  0  0  0  0  0  0  0  0  0
    8.2608    1.3368    0.0000 F   0  0  0  0  0  0  0  0  0  0  0  0
    7.6448   -0.6930    0.0000 F   0  0  0  0  0  0  0  0  0  0  0  0
    6.2309    1.9529    0.0000 F   0  0  0  0  0  0  0  0  0  0  0  0
    1.7445    0.8007    0.0000 C   0  0  0  0  0  0  0  0  0  0  0  0
    0.4215    0.0937    0.0000 C   0  0  0  0  0  0  0  0  0  0  0  0
   -0.9891    0.6039    0.0000 S   0  0  0  0  0  0  0  0  0  0  0  0
   -4.2507    0.7111    0.0000 N   0  0  0  0  0  0  0  0  0  0  0  0
  1  2  2  0
  2  3  1  0
  4  2  1  6
  4  5  1  0
  5  6  1  0
  6  7  1  0
  7  8  1  0
  8  9  2  0
  9 10  1  0
 10 11  1  0
 11 12  2  0
 12 13  1  0
 13 14  1  0
 14 15  1  0
 15 16  1  0
 16 17  1  0
 16 18  1  0
 16 19  1  0
 13 20  2  0
 20 21  1  0
 21 22  1  0
  7 23  2  0
 23  4  1  0
 22  8  1  0
 21 10  2  0
M  END
>  <compound_id>  (5) 
AM03

>  <name>  (5) 
6'-(2,2,2-trifluoroethylamino) luciferin

>  <structural_class>  (5) 
6'-Aminoluciferins, acyclic N-alkyl and pendant amine

>  <subfamily>  (5) 
benzothiazole

>  <smiles>  (5) 
O=C(O)[C@H]1CSC(c2nc3ccc(NCC(F)(F)F)cc3s2)=N1

>  <inchi>  (5) 
InChI=1S/C13H10F3N3O2S2/c14-13(15,16)5-17-6-1-2-7-9(3-6)23-11(18-7)10-19-8(4-22-10)12(20)21/h1-3,8,17H,4-5H2,(H,20,21)/t8-/m1/s1

>  <inchikey>  (5) 
BBHXILGOSHRSOU-MRVPVSSYSA-N

>  <molecular_formula>  (5) 
C13H10F3N3O2S2

>  <iupac_name>  (5) 
(S)-2-(6-((2,2,2-trifluoroethyl)amino)benzothiazol-2-yl)-4,5-dihydrothiazole-4-carboxylic acid

$$$$
AM04
     RDKit          2D

 26 30  0  0  0  0  0  0  0  0999 V2000
   -8.9959    0.5248    0.0000 O   0  0  0  0  0  0  0  0  0  0  0  0
   -7.6150    1.1107    0.0000 C   0  0  0  0  0  0  0  0  0  0  0  0
   -7.4320    2.5995    0.0000 O   0  0  0  0  0  0  0  0  0  0  0  0
   -6.4172    0.2077    0.0000 C   0  0  0  0  0  0  0  0  0  0  0  0
   -6.4437   -1.2920    0.0000 C   0  0  0  0  0  0  0  0  0  0  0  0
   -5.0255   -1.7806    0.0000 S   0  0  0  0  0  0  0  0  0  0  0  0
   -4.1226   -0.5828    0.0000 C   0  0  0  0  0  0  0  0  0  0  0  0
   -2.6228   -0.6093    0.0000 C   0  0  0  0  0  0  0  0  0  0  0  0
   -1.7626   -1.8381    0.0000 N   0  0  0  0  0  0  0  0  0  0  0  0
   -0.3281   -1.3998    0.0000 C   0  0  0  0  0  0  0  0  0  0  0  0
    0.9575   -2.1726    0.0000 C   0  0  0  0  0  0  0  0  0  0  0  0
    2.2696   -1.4456    0.0000 C   0  0  0  0  0  0  0  0  0  0  0  0
    2.2960    0.0541    0.0000 C   0  0  0  0  0  0  0  0  0  0  0  0
    3.6081    0.7811    0.0000 N   0  0  0  0  0  0  0  0  0  0  0  0
    3.7911    2.2699    0.0000 C   0  0  0  0  0  0  0  0  0  0  0  0
    5.2636    2.5559    0.0000 C   0  0  0  0  0  0  0  0  0  0  0  0
    5.9906    1.2438    0.0000 C   0  0  0  0  0  0  0  0  0  0  0  0
    7.4521    0.9061    0.0000 C   0  0  0  0  0  0  0  0  0  0  0  0
    7.8904   -0.5284    0.0000 C   0  0  0  0  0  0  0  0  0  0  0  0
    6.8672   -1.6252    0.0000 C   0  0  0  0  0  0  0  0  0  0  0  0
    5.4057   -1.2876    0.0000 C   0  0  0  0  0  0  0  0  0  0  0  0
    4.9674    0.1470    0.0000 C   0  0  0  0  0  0  0  0  0  0  0  0
    1.0104    0.8269    0.0000 C   0  0  0  0  0  0  0  0  0  0  0  0
   -0.3017    0.0999    0.0000 C   0  0  0  0  0  0  0  0  0  0  0  0
   -1.7199    0.5885    0.0000 S   0  0  0  0  0  0  0  0  0  0  0  0
   -4.9827    0.6461    0.0000 N   0  0  0  0  0  0  0  0  0  0  0  0
  1  2  2  0
  2  3  1  0
  4  2  1  6
  4  5  1  0
  5  6  1  0
  6  7  1  0
  7  8  1  0
  8  9  2  0
  9 10  1  0
 10 11  1  0
 11 12  2  0
 12 13  1  0
 13 14  1  0
 14 15  1  0
 15 16  1  0
 16 17  1  0
 17 18  2  0
 18 19  1  0
 19 20  2  0
 20 21  1  0
 21 22  2  0
 13 23  2  0
 23 24  1  0
 24 25  1  0
  7 26  2  0
 26  4  1  0
 25  8  1  0
 24 10  2  0
 22 14  1  0
 22 17  1  0
M  END
>  <compound_id>  (6) 
AM04

>  <name>  (6) 
6'-(2,3-dihydro-1H-indol-1-yl) luciferin

>  <structural_class>  (6) 
6'-Aminoluciferins, acyclic N-alkyl and pendant amine

>  <subfamily>  (6) 
benzothiazole

>  <smiles>  (6) 
O=C(O)[C@H]1CSC(c2nc3ccc(N4CCc5ccccc54)cc3s2)=N1

>  <inchi>  (6) 
InChI=1S/C19H15N3O2S2/c23-19(24)14-10-25-17(21-14)18-20-13-6-5-12(9-16(13)26-18)22-8-7-11-3-1-2-4-15(11)22/h1-6,9,14H,7-8,10H2,(H,23,24)/t14-/m1/s1

>  <inchikey>  (6) 
QBGZCZWKMGFKGX-CQSZACIVSA-N

>  <molecular_formula>  (6) 
C19H15N3O2S2

>  <iupac_name>  (6) 
(S)-2-(6-(indolin-1-yl)benzothiazol-2-yl)-4,5-dihydrothiazole-4-carboxylic acid

$$$$
AM05
     RDKit          2D

 26 29  0  0  0  0  0  0  0  0999 V2000
   -7.0561   -0.3682    0.0000 C   0  0  0  0  0  0  0  0  0  0  0  0
   -5.9924    0.6895    0.0000 C   0  0  0  0  0  0  0  0  0  0  0  0
   -6.3765    2.1395    0.0000 C   0  0  0  0  0  0  0  0  0  0  0  0
   -5.3128    3.1971    0.0000 C   0  0  0  0  0  0  0  0  0  0  0  0
   -3.8650    2.8047    0.0000 C   0  0  0  0  0  0  0  0  0  0  0  0
   -3.4809    1.3547    0.0000 C   0  0  0  0  0  0  0  0  0  0  0  0
   -2.0332    0.9624    0.0000 C   0  0  0  0  0  0  0  0  0  0  0  0
   -4.5446    0.2971    0.0000 C   0  0  0  0  0  0  0  0  0  0  0  0
   -4.1605   -1.1529    0.0000 N   0  0  0  0  0  0  0  0  0  0  0  0
   -2.7128   -1.5453    0.0000 C   0  0  0  0  0  0  0  0  0  0  0  0
   -2.3287   -2.9952    0.0000 C   0  0  0  0  0  0  0  0  0  0  0  0
   -0.8809   -3.3876    0.0000 C   0  0  0  0  0  0  0  0  0  0  0  0
    0.1828   -2.3300    0.0000 C   0  0  0  0  0  0  0  0  0  0  0  0
    1.6805   -2.4128    0.0000 N   0  0  0  0  0  0  0  0  0  0  0  0
    2.2220   -1.0139    0.0000 C   0  0  0  0  0  0  0  0  0  0  0  0
    3.6720   -0.6298    0.0000 C   0  0  0  0  0  0  0  0  0  0  0  0
    4.2136    0.7690    0.0000 N   0  0  0  0  0  0  0  0  0  0  0  0
    5.7113    0.6862    0.0000 C   0  0  0  0  0  0  0  0  0  0  0  0
    6.6586    1.8492    0.0000 C   0  0  0  0  0  0  0  0  0  0  0  0
    6.1251    3.2511    0.0000 O   0  0  0  0  0  0  0  0  0  0  0  0
    8.1395    1.6104    0.0000 O   0  0  0  0  0  0  0  0  0  0  0  0
    6.0954   -0.7638    0.0000 C   0  0  0  0  0  0  0  0  0  0  0  0
    4.8351   -1.5771    0.0000 S   0  0  0  0  0  0  0  0  0  0  0  0
    1.0590   -0.0666    0.0000 S   0  0  0  0  0  0  0  0  0  0  0  0
   -0.2013   -0.8800    0.0000 C   0  0  0  0  0  0  0  0  0  0  0  0
   -1.6491   -0.4876    0.0000 C   0  0  0  0  0  0  0  0  0  0  0  0
  1  2  1  0
  2  3  1  0
  3  4  2  0
  4  5  1  0
  5  6  2  0
  6  7  1  0
  6  8  1  0
  8  9  1  0
  9 10  1  0
 10 11  1  0
 11 12  2  0
 12 13  1  0
 13 14  1  0
 14 15  2  0
 15 16  1  0
 16 17  2  0
 17 18  1  0
 18 19  1  1
 19 20  2  0
 19 21  1  0
 18 22  1  0
 22 23  1  0
 15 24  1  0
 24 25  1  0
 25 26  1  0
  8  2  2  0
 26 10  2  0
 25 13  2  0
 23 16  1  0
M  END
>  <compound_id>  (7) 
AM05

>  <name>  (7) 
6'-(2,6-dimethylanilino) luciferin

>  <structural_class>  (7) 
6'-Aminoluciferins, acyclic N-alkyl and pendant amine

>  <subfamily>  (7) 
benzothiazole

>  <smiles>  (7) 
Cc1cccc(C)c1Nc1ccc2nc(C3=N[C@@H](C(=O)O)CS3)sc2c1

>  <inchi>  (7) 
InChI=1S/C19H17N3O2S2/c1-10-4-3-5-11(2)16(10)20-12-6-7-13-15(8-12)26-18(21-13)17-22-14(9-25-17)19(23)24/h3-8,14,20H,9H2,1-2H3,(H,23,24)/t14-/m1/s1

>  <inchikey>  (7) 
JTYZEBYFNKLKQQ-CQSZACIVSA-N

>  <molecular_formula>  (7) 
C19H17N3O2S2

>  <iupac_name>  (7) 
(S)-2-(6-((2,6-dimethylphenyl)amino)benzothiazol-2-yl)-4,5-dihydrothiazole-4-carboxylic acid

$$$$
AM06
     RDKit          2D

 26 29  0  0  0  0  0  0  0  0999 V2000
   -8.2548    0.0851    0.0000 C   0  0  0  0  0  0  0  0  0  0  0  0
   -6.8082   -0.3116    0.0000 C   0  0  0  0  0  0  0  0  0  0  0  0
   -5.7413    0.7428    0.0000 C   0  0  0  0  0  0  0  0  0  0  0  0
   -6.1210    2.1940    0.0000 C   0  0  0  0  0  0  0  0  0  0  0  0
   -5.0542    3.2484    0.0000 C   0  0  0  0  0  0  0  0  0  0  0  0
   -3.6076    2.8517    0.0000 C   0  0  0  0  0  0  0  0  0  0  0  0
   -3.2279    1.4005    0.0000 C   0  0  0  0  0  0  0  0  0  0  0  0
   -4.2947    0.3461    0.0000 C   0  0  0  0  0  0  0  0  0  0  0  0
   -3.9150   -1.1050    0.0000 N   0  0  0  0  0  0  0  0  0  0  0  0
   -2.4684   -1.5018    0.0000 C   0  0  0  0  0  0  0  0  0  0  0  0
   -2.0887   -2.9529    0.0000 C   0  0  0  0  0  0  0  0  0  0  0  0
   -0.6421   -3.3496    0.0000 C   0  0  0  0  0  0  0  0  0  0  0  0
    0.4248   -2.2952    0.0000 C   0  0  0  0  0  0  0  0  0  0  0  0
    1.9222   -2.3825    0.0000 N   0  0  0  0  0  0  0  0  0  0  0  0
    2.4680   -0.9853    0.0000 C   0  0  0  0  0  0  0  0  0  0  0  0
    3.9191   -0.6055    0.0000 C   0  0  0  0  0  0  0  0  0  0  0  0
    4.4649    0.7916    0.0000 N   0  0  0  0  0  0  0  0  0  0  0  0
    5.9623    0.7044    0.0000 C   0  0  0  0  0  0  0  0  0  0  0  0
    6.9131    1.8645    0.0000 C   0  0  0  0  0  0  0  0  0  0  0  0
    6.3838    3.2680    0.0000 O   0  0  0  0  0  0  0  0  0  0  0  0
    8.3932    1.6212    0.0000 O   0  0  0  0  0  0  0  0  0  0  0  0
    6.3420   -0.7468    0.0000 C   0  0  0  0  0  0  0  0  0  0  0  0
    5.0793   -1.5563    0.0000 S   0  0  0  0  0  0  0  0  0  0  0  0
    1.3078   -0.0345    0.0000 S   0  0  0  0  0  0  0  0  0  0  0  0
    0.0450   -0.8440    0.0000 C   0  0  0  0  0  0  0  0  0  0  0  0
   -1.4016   -0.4473    0.0000 C   0  0  0  0  0  0  0  0  0  0  0  0
  1  2  1  0
  2  3  1  0
  3  4  2  0
  4  5  1  0
  5  6  2  0
  6  7  1  0
  7  8  2  0
  8  9  1  0
  9 10  1  0
 10 11  1  0
 11 12  2  0
 12 13  1  0
 13 14  1  0
 14 15  2  0
 15 16  1  0
 16 17  2  0
 17 18  1  0
 18 19  1  1
 19 20  2  0
 19 21  1  0
 18 22  1  0
 22 23  1  0
 15 24  1  0
 24 25  1  0
 25 26  1  0
  8  3  1  0
 26 10  2  0
 25 13  2  0
 23 16  1  0
M  END
>  <compound_id>  (8) 
AM06

>  <name>  (8) 
6'-(2-ethylanilino) luciferin

>  <structural_class>  (8) 
6'-Aminoluciferins, acyclic N-alkyl and pendant amine

>  <subfamily>  (8) 
benzothiazole

>  <smiles>  (8) 
CCc1ccccc1Nc1ccc2nc(C3=N[C@@H](C(=O)O)CS3)sc2c1

>  <inchi>  (8) 
InChI=1S/C19H17N3O2S2/c1-2-11-5-3-4-6-13(11)20-12-7-8-14-16(9-12)26-18(21-14)17-22-15(10-25-17)19(23)24/h3-9,15,20H,2,10H2,1H3,(H,23,24)/t15-/m1/s1

>  <inchikey>  (8) 
NIUVZCXVUJKJNP-OAHLLOKOSA-N

>  <molecular_formula>  (8) 
C19H17N3O2S2

>  <iupac_name>  (8) 
(S)-2-(6-((2-ethylphenyl)amino)benzothiazol-2-yl)-4,5-dihydrothiazole-4-carboxylic acid

$$$$
AM07
     RDKit          2D

 23 25  0  0  0  0  0  0  0  0999 V2000
   -8.2754    0.6274    0.0000 C   0  0  0  0  0  0  0  0  0  0  0  0
   -7.1134   -0.3212    0.0000 N   0  0  0  0  0  0  0  0  0  0  0  0
   -7.3540   -1.8018    0.0000 C   0  0  0  0  0  0  0  0  0  0  0  0
   -5.7109    0.2108    0.0000 C   0  0  0  0  0  0  0  0  0  0  0  0
   -5.4704    1.6914    0.0000 O   0  0  0  0  0  0  0  0  0  0  0  0
   -4.5490   -0.7378    0.0000 N   0  0  0  0  0  0  0  0  0  0  0  0
   -3.1465   -0.2058    0.0000 C   0  0  0  0  0  0  0  0  0  0  0  0
   -2.9060    1.2748    0.0000 C   0  0  0  0  0  0  0  0  0  0  0  0
   -1.5035    1.8068    0.0000 C   0  0  0  0  0  0  0  0  0  0  0  0
   -0.3415    0.8582    0.0000 C   0  0  0  0  0  0  0  0  0  0  0  0
    1.1409    1.0870    0.0000 N   0  0  0  0  0  0  0  0  0  0  0  0
    1.8166   -0.2522    0.0000 C   0  0  0  0  0  0  0  0  0  0  0  0
    3.2972   -0.4928    0.0000 C   0  0  0  0  0  0  0  0  0  0  0  0
    4.3621    0.5637    0.0000 N   0  0  0  0  0  0  0  0  0  0  0  0
    5.6959   -0.1226    0.0000 C   0  0  0  0  0  0  0  0  0  0  0  0
    7.0351    0.5531    0.0000 C   0  0  0  0  0  0  0  0  0  0  0  0
    7.1195    2.0507    0.0000 O   0  0  0  0  0  0  0  0  0  0  0  0
    8.2898   -0.2689    0.0000 O   0  0  0  0  0  0  0  0  0  0  0  0
    5.4553   -1.6032    0.0000 C   0  0  0  0  0  0  0  0  0  0  0  0
    3.9729   -1.8320    0.0000 S   0  0  0  0  0  0  0  0  0  0  0  0
    0.7518   -1.3087    0.0000 S   0  0  0  0  0  0  0  0  0  0  0  0
   -0.5820   -0.6224    0.0000 C   0  0  0  0  0  0  0  0  0  0  0  0
   -1.9845   -1.1544    0.0000 C   0  0  0  0  0  0  0  0  0  0  0  0
  1  2  1  0
  2  3  1  0
  2  4  1  0
  4  5  2  0
  4  6  1  0
  6  7  1  0
  7  8  1  0
  8  9  2  0
  9 10  1  0
 10 11  1  0
 11 12  2  0
 12 13  1  0
 13 14  2  0
 14 15  1  0
 15 16  1  1
 16 17  2  0
 16 18  1  0
 15 19  1  0
 19 20  1  0
 12 21  1  0
 21 22  1  0
 22 23  1  0
 23  7  2  0
 22 10  2  0
 20 13  1  0
M  END
>  <compound_id>  (9) 
AM07

>  <name>  (9) 
6'-(3,3-dimethylureido) luciferin

>  <structural_class>  (9) 
6'-Aminoluciferins, acyclic N-alkyl and pendant amine

>  <subfamily>  (9) 
benzothiazole

>  <smiles>  (9) 
CN(C)C(=O)Nc1ccc2nc(C3=N[C@@H](C(=O)O)CS3)sc2c1

>  <inchi>  (9) 
InChI=1S/C14H14N4O3S2/c1-18(2)14(21)15-7-3-4-8-10(5-7)23-12(16-8)11-17-9(6-22-11)13(19)20/h3-5,9H,6H2,1-2H3,(H,15,21)(H,19,20)/t9-/m1/s1

>  <inchikey>  (9) 
PNENRYURIHHOGV-SECBINFHSA-N

>  <molecular_formula>  (9) 
C14H14N4O3S2

>  <iupac_name>  (9) 
(S)-2-(6-(3,3-dimethylureido)benzothiazol-2-yl)-4,5-dihydrothiazole-4-carboxylic acid

$$$$
AM08
     RDKit          2D

 30 33  0  0  0  0  0  0  0  0999 V2000
   -8.0189    3.2980    0.0000 C   0  0  0  0  0  0  0  0  0  0  0  0
   -8.3709    1.8399    0.0000 C   0  0  0  0  0  0  0  0  0  0  0  0
   -8.7228    0.3818    0.0000 C   0  0  0  0  0  0  0  0  0  0  0  0
   -9.8290    2.1918    0.0000 C   0  0  0  0  0  0  0  0  0  0  0  0
   -6.9128    1.4879    0.0000 O   0  0  0  0  0  0  0  0  0  0  0  0
   -6.4885    0.0492    0.0000 C   0  0  0  0  0  0  0  0  0  0  0  0
   -7.5223   -1.0376    0.0000 O   0  0  0  0  0  0  0  0  0  0  0  0
   -5.0304   -0.3027    0.0000 N   0  0  0  0  0  0  0  0  0  0  0  0
   -3.9965    0.7841    0.0000 C   0  0  0  0  0  0  0  0  0  0  0  0
   -2.5384    0.4321    0.0000 C   0  0  0  0  0  0  0  0  0  0  0  0
   -2.1141   -1.0066    0.0000 N   0  0  0  0  0  0  0  0  0  0  0  0
   -0.6560   -1.3586    0.0000 C   0  0  0  0  0  0  0  0  0  0  0  0
   -0.2317   -2.7973    0.0000 C   0  0  0  0  0  0  0  0  0  0  0  0
    1.2264   -3.1493    0.0000 C   0  0  0  0  0  0  0  0  0  0  0  0
    2.2603   -2.0625    0.0000 C   0  0  0  0  0  0  0  0  0  0  0  0
    3.7597   -2.1036    0.0000 N   0  0  0  0  0  0  0  0  0  0  0  0
    4.2622   -0.6902    0.0000 C   0  0  0  0  0  0  0  0  0  0  0  0
    5.7009   -0.2659    0.0000 C   0  0  0  0  0  0  0  0  0  0  0  0
    6.2033    1.1474    0.0000 N   0  0  0  0  0  0  0  0  0  0  0  0
    7.7028    1.1063    0.0000 C   0  0  0  0  0  0  0  0  0  0  0  0
    8.6174    2.2953    0.0000 C   0  0  0  0  0  0  0  0  0  0  0  0
    8.0450    3.6818    0.0000 O   0  0  0  0  0  0  0  0  0  0  0  0
   10.1043    2.0977    0.0000 O   0  0  0  0  0  0  0  0  0  0  0  0
    8.1270   -0.3324    0.0000 C   0  0  0  0  0  0  0  0  0  0  0  0
    6.8898   -1.1805    0.0000 S   0  0  0  0  0  0  0  0  0  0  0  0
    3.0732    0.2244    0.0000 S   0  0  0  0  0  0  0  0  0  0  0  0
    1.8360   -0.6237    0.0000 C   0  0  0  0  0  0  0  0  0  0  0  0
    0.3779   -0.2718    0.0000 C   0  0  0  0  0  0  0  0  0  0  0  0
   -3.1480   -2.0934    0.0000 C   0  0  0  0  0  0  0  0  0  0  0  0
   -4.6061   -1.7415    0.0000 C   0  0  0  0  0  0  0  0  0  0  0  0
  1  2  1  0
  2  3  1  0
  2  4  1  0
  2  5  1  0
  5  6  1  0
  6  7  2  0
  6  8  1  0
  8  9  1  0
  9 10  1  0
 10 11  1  0
 11 12  1  0
 12 13  1  0
 13 14  2  0
 14 15  1  0
 15 16  1  0
 16 17  2  0
 17 18  1  0
 18 19  2  0
 19 20  1  0
 20 21  1  1
 21 22  2  0
 21 23  1  0
 20 24  1  0
 24 25  1  0
 17 26  1  0
 26 27  1  0
 27 28  1  0
 11 29  1  0
 29 30  1  0
 30  8  1  0
 28 12  2  0
 27 15  2  0
 25 18  1  0
M  END
>  <compound_id>  (10) 
AM08

>  <name>  (10) 
6'-(4-tert-butoxycarbonylpiperazin-1-yl) luciferin

>  <structural_class>  (10) 
6'-Aminoluciferins, acyclic N-alkyl and pendant amine

>  <subfamily>  (10) 
benzothiazole

>  <smiles>  (10) 
CC(C)(C)OC(=O)N1CCN(c2ccc3nc(C4=N[C@@H](C(=O)O)CS4)sc3c2)CC1

>  <inchi>  (10) 
InChI=1S/C20H24N4O4S2/c1-20(2,3)28-19(27)24-8-6-23(7-9-24)12-4-5-13-15(10-12)30-17(21-13)16-22-14(11-29-16)18(25)26/h4-5,10,14H,6-9,11H2,1-3H3,(H,25,26)/t14-/m1/s1

>  <inchikey>  (10) 
NCXYLMYZDITJBR-CQSZACIVSA-N

>  <molecular_formula>  (10) 
C20H24N4O4S2

>  <iupac_name>  (10) 
(S)-2-(6-(4-(tert-butoxycarbonyl)piperazin-1-yl)benzothiazol-2-yl)-4,5-dihydrothiazole-4-carboxylic acid

$$$$
AM09
     RDKit          2D

 24 27  0  0  0  0  0  0  0  0999 V2000
   -8.3001    0.9803    0.0000 O   0  0  0  0  0  0  0  0  0  0  0  0
   -6.8727    1.4410    0.0000 C   0  0  0  0  0  0  0  0  0  0  0  0
   -6.5580    2.9077    0.0000 O   0  0  0  0  0  0  0  0  0  0  0  0
   -5.7599    0.4352    0.0000 C   0  0  0  0  0  0  0  0  0  0  0  0
   -5.9195   -1.0563    0.0000 C   0  0  0  0  0  0  0  0  0  0  0  0
   -4.5504   -1.6690    0.0000 S   0  0  0  0  0  0  0  0  0  0  0  0
   -3.5445   -0.5562    0.0000 C   0  0  0  0  0  0  0  0  0  0  0  0
   -2.0531   -0.7158    0.0000 C   0  0  0  0  0  0  0  0  0  0  0  0
   -1.3055   -2.0163    0.0000 N   0  0  0  0  0  0  0  0  0  0  0  0
    0.1623   -1.7072    0.0000 C   0  0  0  0  0  0  0  0  0  0  0  0
    1.3741   -2.5912    0.0000 C   0  0  0  0  0  0  0  0  0  0  0  0
    2.7456   -1.9838    0.0000 C   0  0  0  0  0  0  0  0  0  0  0  0
    2.9052   -0.4923    0.0000 C   0  0  0  0  0  0  0  0  0  0  0  0
    4.2767    0.1152    0.0000 N   0  0  0  0  0  0  0  0  0  0  0  0
    4.3245    1.6144    0.0000 C   0  0  0  0  0  0  0  0  0  0  0  0
    5.5264    2.5119    0.0000 C   0  0  0  0  0  0  0  0  0  0  0  0
    6.9774    2.1317    0.0000 C   0  0  0  0  0  0  0  0  0  0  0  0
    7.5849    0.7602    0.0000 C   0  0  0  0  0  0  0  0  0  0  0  0
    6.8914   -0.5698    0.0000 C   0  0  0  0  0  0  0  0  0  0  0  0
    5.4191   -0.8569    0.0000 C   0  0  0  0  0  0  0  0  0  0  0  0
    1.6934    0.3917    0.0000 C   0  0  0  0  0  0  0  0  0  0  0  0
    0.3219   -0.2158    0.0000 C   0  0  0  0  0  0  0  0  0  0  0  0
   -1.0472    0.3970    0.0000 S   0  0  0  0  0  0  0  0  0  0  0  0
   -4.2920    0.7443    0.0000 N   0  0  0  0  0  0  0  0  0  0  0  0
  1  2  2  0
  2  3  1  0
  4  2  1  6
  4  5  1  0
  5  6  1  0
  6  7  1  0
  7  8  1  0
  8  9  2  0
  9 10  1  0
 10 11  1  0
 11 12  2  0
 12 13  1  0
 13 14  1  0
 14 15  1  0
 15 16  1  0
 16 17  1  0
 17 18  1  0
 18 19  1  0
 19 20  1  0
 13 21  2  0
 21 22  1  0
 22 23  1  0
  7 24  2  0
 24  4  1  0
 23  8  1  0
 22 10  2  0
 20 14  1  0
M  END
>  <compound_id>  (11) 
AM09

>  <name>  (11) 
6'-(azepan-1-yl) luciferin

>  <structural_class>  (11) 
6'-Aminoluciferins, acyclic N-alkyl and pendant amine

>  <subfamily>  (11) 
benzothiazole

>  <smiles>  (11) 
O=C(O)[C@H]1CSC(c2nc3ccc(N4CCCCCC4)cc3s2)=N1

>  <inchi>  (11) 
InChI=1S/C17H19N3O2S2/c21-17(22)13-10-23-15(19-13)16-18-12-6-5-11(9-14(12)24-16)20-7-3-1-2-4-8-20/h5-6,9,13H,1-4,7-8,10H2,(H,21,22)/t13-/m1/s1

>  <inchikey>  (11) 
GRFYBXURSQOJAN-CYBMUJFWSA-N

>  <molecular_formula>  (11) 
C17H19N3O2S2

>  <iupac_name>  (11) 
(S)-2-(6-(azepan-1-yl)benzothiazol-2-yl)-4,5-dihydrothiazole-4-carboxylic acid

$$$$
AM10
     RDKit          2D

 21 24  0  0  0  0  0  0  0  0999 V2000
   -7.4091    0.6348    0.0000 O   0  0  0  0  0  0  0  0  0  0  0  0
   -6.0171    1.1937    0.0000 C   0  0  0  0  0  0  0  0  0  0  0  0
   -5.8051    2.6787    0.0000 O   0  0  0  0  0  0  0  0  0  0  0  0
   -4.8371    0.2677    0.0000 C   0  0  0  0  0  0  0  0  0  0  0  0
   -4.8927   -1.2313    0.0000 C   0  0  0  0  0  0  0  0  0  0  0  0
   -3.4843   -1.7474    0.0000 S   0  0  0  0  0  0  0  0  0  0  0  0
   -2.5582   -0.5674    0.0000 C   0  0  0  0  0  0  0  0  0  0  0  0
   -1.0593   -0.6230    0.0000 C   0  0  0  0  0  0  0  0  0  0  0  0
   -0.2232   -1.8683    0.0000 N   0  0  0  0  0  0  0  0  0  0  0  0
    1.2196   -1.4580    0.0000 C   0  0  0  0  0  0  0  0  0  0  0  0
    2.4900   -2.2557    0.0000 C   0  0  0  0  0  0  0  0  0  0  0  0
    3.8159   -1.5543    0.0000 C   0  0  0  0  0  0  0  0  0  0  0  0
    3.8715   -0.0554    0.0000 C   0  0  0  0  0  0  0  0  0  0  0  0
    5.1975    0.6460    0.0000 N   0  0  0  0  0  0  0  0  0  0  0  0
    6.6310    0.2043    0.0000 C   0  0  0  0  0  0  0  0  0  0  0  0
    7.0726    1.6378    0.0000 C   0  0  0  0  0  0  0  0  0  0  0  0
    5.6391    2.0795    0.0000 C   0  0  0  0  0  0  0  0  0  0  0  0
    2.6012    0.7423    0.0000 C   0  0  0  0  0  0  0  0  0  0  0  0
    1.2752    0.0409    0.0000 C   0  0  0  0  0  0  0  0  0  0  0  0
   -0.1332    0.5570    0.0000 S   0  0  0  0  0  0  0  0  0  0  0  0
   -3.3943    0.6780    0.0000 N   0  0  0  0  0  0  0  0  0  0  0  0
  1  2  2  0
  2  3  1  0
  4  2  1  6
  4  5  1  0
  5  6  1  0
  6  7  1  0
  7  8  1  0
  8  9  2  0
  9 10  1  0
 10 11  1  0
 11 12  2  0
 12 13  1  0
 13 14  1  0
 14 15  1  0
 15 16  1  0
 16 17  1  0
 13 18  2  0
 18 19  1  0
 19 20  1  0
  7 21  2  0
 21  4  1  0
 20  8  1  0
 19 10  2  0
 17 14  1  0
M  END
>  <compound_id>  (12) 
AM10

>  <name>  (12) 
6'-(azetidin-1-yl) luciferin

>  <structural_class>  (12) 
6'-Aminoluciferins, acyclic N-alkyl and pendant amine

>  <subfamily>  (12) 
benzothiazole

>  <smiles>  (12) 
O=C(O)[C@H]1CSC(c2nc3ccc(N4CCC4)cc3s2)=N1

>  <inchi>  (12) 
InChI=1S/C14H13N3O2S2/c18-14(19)10-7-20-12(16-10)13-15-9-3-2-8(6-11(9)21-13)17-4-1-5-17/h2-3,6,10H,1,4-5,7H2,(H,18,19)/t10-/m1/s1

>  <inchikey>  (12) 
QEDVWUXDTYTRPX-SNVBAGLBSA-N

>  <molecular_formula>  (12) 
C14H13N3O2S2

>  <iupac_name>  (12) 
(S)-2-(6-(azetidin-1-yl)benzothiazol-2-yl)-4,5-dihydrothiazole-4-carboxylic acid

$$$$
AM11
     RDKit          2D

 23 26  0  0  0  0  0  0  0  0999 V2000
   -8.0105    0.8764    0.0000 O   0  0  0  0  0  0  0  0  0  0  0  0
   -6.5928    1.3663    0.0000 C   0  0  0  0  0  0  0  0  0  0  0  0
   -6.3081    2.8390    0.0000 O   0  0  0  0  0  0  0  0  0  0  0  0
   -5.4597    0.3834    0.0000 C   0  0  0  0  0  0  0  0  0  0  0  0
   -5.5888   -1.1110    0.0000 C   0  0  0  0  0  0  0  0  0  0  0  0
   -4.2074   -1.6957    0.0000 S   0  0  0  0  0  0  0  0  0  0  0  0
   -3.2245   -0.5626    0.0000 C   0  0  0  0  0  0  0  0  0  0  0  0
   -1.7301   -0.6917    0.0000 C   0  0  0  0  0  0  0  0  0  0  0  0
   -0.9562   -1.9767    0.0000 N   0  0  0  0  0  0  0  0  0  0  0  0
    0.5050   -1.6377    0.0000 C   0  0  0  0  0  0  0  0  0  0  0  0
    1.7346   -2.4967    0.0000 C   0  0  0  0  0  0  0  0  0  0  0  0
    3.0934   -1.8614    0.0000 C   0  0  0  0  0  0  0  0  0  0  0  0
    3.2226   -0.3669    0.0000 C   0  0  0  0  0  0  0  0  0  0  0  0
    4.5814    0.2684    0.0000 N   0  0  0  0  0  0  0  0  0  0  0  0
    5.8110   -0.5906    0.0000 C   0  0  0  0  0  0  0  0  0  0  0  0
    7.1698    0.0447    0.0000 C   0  0  0  0  0  0  0  0  0  0  0  0
    7.2990    1.5392    0.0000 O   0  0  0  0  0  0  0  0  0  0  0  0
    6.0693    2.3982    0.0000 C   0  0  0  0  0  0  0  0  0  0  0  0
    4.7105    1.7629    0.0000 C   0  0  0  0  0  0  0  0  0  0  0  0
    1.9929    0.4921    0.0000 C   0  0  0  0  0  0  0  0  0  0  0  0
    0.6342   -0.1433    0.0000 C   0  0  0  0  0  0  0  0  0  0  0  0
   -0.7472    0.4414    0.0000 S   0  0  0  0  0  0  0  0  0  0  0  0
   -3.9985    0.7224    0.0000 N   0  0  0  0  0  0  0  0  0  0  0  0
  1  2  2  0
  2  3  1  0
  4  2  1  6
  4  5  1  0
  5  6  1  0
  6  7  1  0
  7  8  1  0
  8  9  2  0
  9 10  1  0
 10 11  1  0
 11 12  2  0
 12 13  1  0
 13 14  1  0
 14 15  1  0
 15 16  1  0
 16 17  1  0
 17 18  1  0
 18 19  1  0
 13 20  2  0
 20 21  1  0
 21 22  1  0
  7 23  2  0
 23  4  1  0
 22  8  1  0
 21 10  2  0
 19 14  1  0
M  END
>  <compound_id>  (13) 
AM11

>  <name>  (13) 
6'-(morpholin-4-yl) luciferin

>  <structural_class>  (13) 
6'-Aminoluciferins, acyclic N-alkyl and pendant amine

>  <subfamily>  (13) 
benzothiazole

>  <smiles>  (13) 
O=C(O)[C@H]1CSC(c2nc3ccc(N4CCOCC4)cc3s2)=N1

>  <inchi>  (13) 
InChI=1S/C15H15N3O3S2/c19-15(20)11-8-22-13(17-11)14-16-10-2-1-9(7-12(10)23-14)18-3-5-21-6-4-18/h1-2,7,11H,3-6,8H2,(H,19,20)/t11-/m1/s1

>  <inchikey>  (13) 
RCXHJIATEBWBSE-LLVKDONJSA-N

>  <molecular_formula>  (13) 
C15H15N3O3S2

>  <iupac_name>  (13) 
(S)-2-(6-morpholinobenzothiazol-2-yl)-4,5-dihydrothiazole-4-carboxylic acid

$$$$
AM12
     RDKit          2D

 24 27  0  0  0  0  0  0  0  0999 V2000
   -8.5983    0.1824    0.0000 O   0  0  0  0  0  0  0  0  0  0  0  0
   -7.2687    0.8768    0.0000 C   0  0  0  0  0  0  0  0  0  0  0  0
   -7.2053    2.3754    0.0000 O   0  0  0  0  0  0  0  0  0  0  0  0
   -6.0026    0.0725    0.0000 C   0  0  0  0  0  0  0  0  0  0  0  0
   -5.9090   -1.4246    0.0000 C   0  0  0  0  0  0  0  0  0  0  0  0
   -4.4563   -1.7982    0.0000 S   0  0  0  0  0  0  0  0  0  0  0  0
   -3.6520   -0.5320    0.0000 C   0  0  0  0  0  0  0  0  0  0  0  0
   -2.1549   -0.4385    0.0000 C   0  0  0  0  0  0  0  0  0  0  0  0
   -1.1993   -1.5946    0.0000 N   0  0  0  0  0  0  0  0  0  0  0  0
    0.1956   -1.0430    0.0000 C   0  0  0  0  0  0  0  0  0  0  0  0
    1.5389   -1.7105    0.0000 C   0  0  0  0  0  0  0  0  0  0  0  0
    2.7886   -0.8810    0.0000 C   0  0  0  0  0  0  0  0  0  0  0  0
    2.6951    0.6161    0.0000 C   0  0  0  0  0  0  0  0  0  0  0  0
    3.9448    1.4457    0.0000 N   0  0  0  0  0  0  0  0  0  0  0  0
    5.2881    0.7782    0.0000 C   0  0  0  0  0  0  0  0  0  0  0  0
    5.3816   -0.7189    0.0000 C   0  0  0  0  0  0  0  0  0  0  0  0
    6.7249   -1.3864    0.0000 C   0  0  0  0  0  0  0  0  0  0  0  0
    7.9747   -0.5568    0.0000 C   0  0  0  0  0  0  0  0  0  0  0  0
    7.8811    0.9402    0.0000 C   0  0  0  0  0  0  0  0  0  0  0  0
    6.5378    1.6077    0.0000 C   0  0  0  0  0  0  0  0  0  0  0  0
    1.3518    1.2836    0.0000 C   0  0  0  0  0  0  0  0  0  0  0  0
    0.1020    0.4541    0.0000 C   0  0  0  0  0  0  0  0  0  0  0  0
   -1.3507    0.8277    0.0000 S   0  0  0  0  0  0  0  0  0  0  0  0
   -4.6077    0.6241    0.0000 N   0  0  0  0  0  0  0  0  0  0  0  0
  1  2  2  0
  2  3  1  0
  4  2  1  6
  4  5  1  0
  5  6  1  0
  6  7  1  0
  7  8  1  0
  8  9  2  0
  9 10  1  0
 10 11  1  0
 11 12  2  0
 12 13  1  0
 13 14  1  0
 14 15  1  0
 15 16  2  0
 16 17  1  0
 17 18  2  0
 18 19  1  0
 19 20  2  0
 13 21  2  0
 21 22  1  0
 22 23  1  0
  7 24  2  0
 24  4  1  0
 23  8  1  0
 22 10  2  0
 20 15  1  0
M  END
>  <compound_id>  (14) 
AM12

>  <name>  (14) 
6'-(phenylamino) luciferin

>  <structural_class>  (14) 
6'-Aminoluciferins, acyclic N-alkyl and pendant amine

>  <subfamily>  (14) 
benzothiazole

>  <smiles>  (14) 
O=C(O)[C@H]1CSC(c2nc3ccc(Nc4ccccc4)cc3s2)=N1

>  <inchi>  (14) 
InChI=1S/C17H13N3O2S2/c21-17(22)13-9-23-15(20-13)16-19-12-7-6-11(8-14(12)24-16)18-10-4-2-1-3-5-10/h1-8,13,18H,9H2,(H,21,22)/t13-/m1/s1

>  <inchikey>  (14) 
YUXJDRNZRRNYGM-CYBMUJFWSA-N

>  <molecular_formula>  (14) 
C17H13N3O2S2

>  <iupac_name>  (14) 
(S)-2-(6-(phenylamino)benzothiazol-2-yl)-4,5-dihydrothiazole-4-carboxylic acid

$$$$
AM13
     RDKit          2D

 23 26  0  0  0  0  0  0  0  0999 V2000
   -8.0105    0.8764    0.0000 O   0  0  0  0  0  0  0  0  0  0  0  0
   -6.5928    1.3663    0.0000 C   0  0  0  0  0  0  0  0  0  0  0  0
   -6.3081    2.8390    0.0000 O   0  0  0  0  0  0  0  0  0  0  0  0
   -5.4597    0.3834    0.0000 C   0  0  0  0  0  0  0  0  0  0  0  0
   -5.5888   -1.1110    0.0000 C   0  0  0  0  0  0  0  0  0  0  0  0
   -4.2074   -1.6957    0.0000 S   0  0  0  0  0  0  0  0  0  0  0  0
   -3.2245   -0.5626    0.0000 C   0  0  0  0  0  0  0  0  0  0  0  0
   -1.7301   -0.6917    0.0000 C   0  0  0  0  0  0  0  0  0  0  0  0
   -0.9562   -1.9767    0.0000 N   0  0  0  0  0  0  0  0  0  0  0  0
    0.5050   -1.6377    0.0000 C   0  0  0  0  0  0  0  0  0  0  0  0
    1.7346   -2.4967    0.0000 C   0  0  0  0  0  0  0  0  0  0  0  0
    3.0934   -1.8614    0.0000 C   0  0  0  0  0  0  0  0  0  0  0  0
    3.2226   -0.3669    0.0000 C   0  0  0  0  0  0  0  0  0  0  0  0
    4.5814    0.2684    0.0000 N   0  0  0  0  0  0  0  0  0  0  0  0
    5.8110   -0.5906    0.0000 C   0  0  0  0  0  0  0  0  0  0  0  0
    7.1698    0.0447    0.0000 C   0  0  0  0  0  0  0  0  0  0  0  0
    7.2990    1.5392    0.0000 N   0  0  0  0  0  0  0  0  0  0  0  0
    6.0693    2.3982    0.0000 C   0  0  0  0  0  0  0  0  0  0  0  0
    4.7105    1.7629    0.0000 C   0  0  0  0  0  0  0  0  0  0  0  0
    1.9929    0.4921    0.0000 C   0  0  0  0  0  0  0  0  0  0  0  0
    0.6342   -0.1433    0.0000 C   0  0  0  0  0  0  0  0  0  0  0  0
   -0.7472    0.4414    0.0000 S   0  0  0  0  0  0  0  0  0  0  0  0
   -3.9985    0.7224    0.0000 N   0  0  0  0  0  0  0  0  0  0  0  0
  1  2  2  0
  2  3  1  0
  4  2  1  6
  4  5  1  0
  5  6  1  0
  6  7  1  0
  7  8  1  0
  8  9  2  0
  9 10  1  0
 10 11  1  0
 11 12  2  0
 12 13  1  0
 13 14  1  0
 14 15  1  0
 15 16  1  0
 16 17  1  0
 17 18  1  0
 18 19  1  0
 13 20  2  0
 20 21  1  0
 21 22  1  0
  7 23  2  0
 23  4  1  0
 22  8  1  0
 21 10  2  0
 19 14  1  0
M  END
>  <compound_id>  (15) 
AM13

>  <name>  (15) 
6'-(piperazin-1-yl) luciferin

>  <structural_class>  (15) 
6'-Aminoluciferins, acyclic N-alkyl and pendant amine

>  <subfamily>  (15) 
benzothiazole

>  <smiles>  (15) 
O=C(O)[C@H]1CSC(c2nc3ccc(N4CCNCC4)cc3s2)=N1

>  <inchi>  (15) 
InChI=1S/C15H16N4O2S2/c20-15(21)11-8-22-13(18-11)14-17-10-2-1-9(7-12(10)23-14)19-5-3-16-4-6-19/h1-2,7,11,16H,3-6,8H2,(H,20,21)/t11-/m1/s1

>  <inchikey>  (15) 
AVVCOAJUFUAPRQ-LLVKDONJSA-N

>  <molecular_formula>  (15) 
C15H16N4O2S2

>  <iupac_name>  (15) 
Trifluoroacetic acid salt of (S)-2-(6-(piperazin-1-yl)benzothiazol-2-yl)-4,5-dihydrothiazole-4-carboxylic acid

$$$$
AM14
     RDKit          2D

 23 26  0  0  0  0  0  0  0  0999 V2000
   -8.0105    0.8764    0.0000 O   0  0  0  0  0  0  0  0  0  0  0  0
   -6.5928    1.3663    0.0000 C   0  0  0  0  0  0  0  0  0  0  0  0
   -6.3081    2.8390    0.0000 O   0  0  0  0  0  0  0  0  0  0  0  0
   -5.4597    0.3834    0.0000 C   0  0  0  0  0  0  0  0  0  0  0  0
   -5.5888   -1.1110    0.0000 C   0  0  0  0  0  0  0  0  0  0  0  0
   -4.2074   -1.6957    0.0000 S   0  0  0  0  0  0  0  0  0  0  0  0
   -3.2245   -0.5626    0.0000 C   0  0  0  0  0  0  0  0  0  0  0  0
   -1.7301   -0.6917    0.0000 C   0  0  0  0  0  0  0  0  0  0  0  0
   -0.9562   -1.9767    0.0000 N   0  0  0  0  0  0  0  0  0  0  0  0
    0.5050   -1.6377    0.0000 C   0  0  0  0  0  0  0  0  0  0  0  0
    1.7346   -2.4967    0.0000 C   0  0  0  0  0  0  0  0  0  0  0  0
    3.0934   -1.8614    0.0000 C   0  0  0  0  0  0  0  0  0  0  0  0
    3.2226   -0.3669    0.0000 C   0  0  0  0  0  0  0  0  0  0  0  0
    4.5814    0.2684    0.0000 N   0  0  0  0  0  0  0  0  0  0  0  0
    5.8110   -0.5906    0.0000 C   0  0  0  0  0  0  0  0  0  0  0  0
    7.1698    0.0447    0.0000 C   0  0  0  0  0  0  0  0  0  0  0  0
    7.2990    1.5392    0.0000 C   0  0  0  0  0  0  0  0  0  0  0  0
    6.0693    2.3982    0.0000 C   0  0  0  0  0  0  0  0  0  0  0  0
    4.7105    1.7629    0.0000 C   0  0  0  0  0  0  0  0  0  0  0  0
    1.9929    0.4921    0.0000 C   0  0  0  0  0  0  0  0  0  0  0  0
    0.6342   -0.1433    0.0000 C   0  0  0  0  0  0  0  0  0  0  0  0
   -0.7472    0.4414    0.0000 S   0  0  0  0  0  0  0  0  0  0  0  0
   -3.9985    0.7224    0.0000 N   0  0  0  0  0  0  0  0  0  0  0  0
  1  2  2  0
  2  3  1  0
  4  2  1  6
  4  5  1  0
  5  6  1  0
  6  7  1  0
  7  8  1  0
  8  9  2  0
  9 10  1  0
 10 11  1  0
 11 12  2  0
 12 13  1  0
 13 14  1  0
 14 15  1  0
 15 16  1  0
 16 17  1  0
 17 18  1  0
 18 19  1  0
 13 20  2  0
 20 21  1  0
 21 22  1  0
  7 23  2  0
 23  4  1  0
 22  8  1  0
 21 10  2  0
 19 14  1  0
M  END
>  <compound_id>  (16) 
AM14

>  <name>  (16) 
6'-(piperidin-1-yl) luciferin

>  <structural_class>  (16) 
6'-Aminoluciferins, acyclic N-alkyl and pendant amine

>  <subfamily>  (16) 
benzothiazole

>  <smiles>  (16) 
O=C(O)[C@H]1CSC(c2nc3ccc(N4CCCCC4)cc3s2)=N1

>  <inchi>  (16) 
InChI=1S/C16H17N3O2S2/c20-16(21)12-9-22-14(18-12)15-17-11-5-4-10(8-13(11)23-15)19-6-2-1-3-7-19/h4-5,8,12H,1-3,6-7,9H2,(H,20,21)/t12-/m1/s1

>  <inchikey>  (16) 
QHEFHACSSYGGNU-GFCCVEGCSA-N

>  <molecular_formula>  (16) 
C16H17N3O2S2

>  <iupac_name>  (16) 
(S)-2-(6-(piperidin-1-yl)benzothiazol-2-yl)-4,5-dihydrothiazole-4-carboxylic acid

$$$$
AM15
     RDKit          2D

 21 23  0  0  0  0  0  0  0  0999 V2000
   -8.8914    0.5417    0.0000 C   0  0  0  0  0  0  0  0  0  0  0  0
   -7.7209   -0.3963    0.0000 C   0  0  0  0  0  0  0  0  0  0  0  0
   -6.3232    0.1483    0.0000 C   0  0  0  0  0  0  0  0  0  0  0  0
   -5.1527   -0.7897    0.0000 N   0  0  0  0  0  0  0  0  0  0  0  0
   -3.7551   -0.2451    0.0000 C   0  0  0  0  0  0  0  0  0  0  0  0
   -3.5280    1.2377    0.0000 C   0  0  0  0  0  0  0  0  0  0  0  0
   -2.1304    1.7823    0.0000 C   0  0  0  0  0  0  0  0  0  0  0  0
   -0.9599    0.8443    0.0000 C   0  0  0  0  0  0  0  0  0  0  0  0
    0.5204    1.0865    0.0000 N   0  0  0  0  0  0  0  0  0  0  0  0
    1.2082   -0.2466    0.0000 C   0  0  0  0  0  0  0  0  0  0  0  0
    2.6909   -0.4737    0.0000 C   0  0  0  0  0  0  0  0  0  0  0  0
    3.7462    0.5923    0.0000 N   0  0  0  0  0  0  0  0  0  0  0  0
    5.0861   -0.0818    0.0000 C   0  0  0  0  0  0  0  0  0  0  0  0
    6.4192    0.6059    0.0000 C   0  0  0  0  0  0  0  0  0  0  0  0
    6.4901    2.1043    0.0000 O   0  0  0  0  0  0  0  0  0  0  0  0
    7.6813   -0.2046    0.0000 O   0  0  0  0  0  0  0  0  0  0  0  0
    4.8590   -1.5645    0.0000 C   0  0  0  0  0  0  0  0  0  0  0  0
    3.3787   -1.8067    0.0000 S   0  0  0  0  0  0  0  0  0  0  0  0
    0.1530   -1.3126    0.0000 S   0  0  0  0  0  0  0  0  0  0  0  0
   -1.1870   -0.6384    0.0000 C   0  0  0  0  0  0  0  0  0  0  0  0
   -2.5846   -1.1831    0.0000 C   0  0  0  0  0  0  0  0  0  0  0  0
  1  2  2  0
  2  3  1  0
  3  4  1  0
  4  5  1  0
  5  6  1  0
  6  7  2  0
  7  8  1  0
  8  9  1  0
  9 10  2  0
 10 11  1  0
 11 12  2  0
 12 13  1  0
 13 14  1  1
 14 15  2  0
 14 16  1  0
 13 17  1  0
 17 18  1  0
 10 19  1  0
 19 20  1  0
 20 21  1  0
 21  5  2  0
 20  8  2  0
 18 11  1  0
M  END
>  <compound_id>  (17) 
AM15

>  <name>  (17) 
6'-(prop-2-en-1-ylamino) luciferin

>  <structural_class>  (17) 
6'-Aminoluciferins, acyclic N-alkyl and pendant amine

>  <subfamily>  (17) 
benzothiazole

>  <smiles>  (17) 
C=CCNc1ccc2nc(C3=N[C@@H](C(=O)O)CS3)sc2c1

>  <inchi>  (17) 
InChI=1S/C14H13N3O2S2/c1-2-5-15-8-3-4-9-11(6-8)21-13(16-9)12-17-10(7-20-12)14(18)19/h2-4,6,10,15H,1,5,7H2,(H,18,19)/t10-/m1/s1

>  <inchikey>  (17) 
IORLQASZJQEMAT-SNVBAGLBSA-N

>  <molecular_formula>  (17) 
C14H13N3O2S2

>  <iupac_name>  (17) 
(S)-2-(6-(allylamino)benzothiazol-2-yl)-4,5-dihydrothiazole-4-carboxylic acid

$$$$
AM16
     RDKit          2D

 22 25  0  0  0  0  0  0  0  0999 V2000
   -7.7139    0.7620    0.0000 O   0  0  0  0  0  0  0  0  0  0  0  0
   -6.3078    1.2843    0.0000 C   0  0  0  0  0  0  0  0  0  0  0  0
   -6.0571    2.7632    0.0000 O   0  0  0  0  0  0  0  0  0  0  0  0
   -5.1524    0.3277    0.0000 C   0  0  0  0  0  0  0  0  0  0  0  0
   -5.2472   -1.1693    0.0000 C   0  0  0  0  0  0  0  0  0  0  0  0
   -3.8527   -1.7220    0.0000 S   0  0  0  0  0  0  0  0  0  0  0  0
   -2.8962   -0.5666    0.0000 C   0  0  0  0  0  0  0  0  0  0  0  0
   -1.3992   -0.6614    0.0000 C   0  0  0  0  0  0  0  0  0  0  0  0
   -0.5959   -1.9282    0.0000 N   0  0  0  0  0  0  0  0  0  0  0  0
    0.8571   -1.5557    0.0000 C   0  0  0  0  0  0  0  0  0  0  0  0
    2.1062   -2.3863    0.0000 C   0  0  0  0  0  0  0  0  0  0  0  0
    3.4500   -1.7199    0.0000 C   0  0  0  0  0  0  0  0  0  0  0  0
    3.5448   -0.2229    0.0000 C   0  0  0  0  0  0  0  0  0  0  0  0
    4.8886    0.4435    0.0000 N   0  0  0  0  0  0  0  0  0  0  0  0
    5.1393    1.9224    0.0000 C   0  0  0  0  0  0  0  0  0  0  0  0
    6.6233    2.1409    0.0000 C   0  0  0  0  0  0  0  0  0  0  0  0
    7.2898    0.7971    0.0000 C   0  0  0  0  0  0  0  0  0  0  0  0
    6.2176   -0.2520    0.0000 C   0  0  0  0  0  0  0  0  0  0  0  0
    2.2957    0.6077    0.0000 C   0  0  0  0  0  0  0  0  0  0  0  0
    0.9519   -0.0587    0.0000 C   0  0  0  0  0  0  0  0  0  0  0  0
   -0.4426    0.4940    0.0000 S   0  0  0  0  0  0  0  0  0  0  0  0
   -3.6994    0.7002    0.0000 N   0  0  0  0  0  0  0  0  0  0  0  0
  1  2  2  0
  2  3  1  0
  4  2  1  6
  4  5  1  0
  5  6  1  0
  6  7  1  0
  7  8  1  0
  8  9  2  0
  9 10  1  0
 10 11  1  0
 11 12  2  0
 12 13  1  0
 13 14  1  0
 14 15  1  0
 15 16  1  0
 16 17  1  0
 17 18  1  0
 13 19  2  0
 19 20  1  0
 20 21  1  0
  7 22  2  0
 22  4  1  0
 21  8  1  0
 20 10  2  0
 18 14  1  0
M  END
>  <compound_id>  (18) 
AM16

>  <name>  (18) 
6'-(pyrrolidin-1-yl) luciferin

>  <structural_class>  (18) 
6'-Aminoluciferins, acyclic N-alkyl and pendant amine

>  <subfamily>  (18) 
benzothiazole

>  <smiles>  (18) 
O=C(O)[C@H]1CSC(c2nc3ccc(N4CCCC4)cc3s2)=N1

>  <inchi>  (18) 
InChI=1S/C15H15N3O2S2/c19-15(20)11-8-21-13(17-11)14-16-10-4-3-9(7-12(10)22-14)18-5-1-2-6-18/h3-4,7,11H,1-2,5-6,8H2,(H,19,20)/t11-/m1/s1

>  <inchikey>  (18) 
QBIHTXOSEGSRCH-LLVKDONJSA-N

>  <molecular_formula>  (18) 
C15H15N3O2S2

>  <iupac_name>  (18) 
(S)-2-(6-(pyrrolidin-1-yl)benzothiazol-2-yl)-4,5-dihydrothiazole-4-carboxylic acid

$$$$
AM17
     RDKit          2D

 23 26  0  0  0  0  0  0  0  0999 V2000
   -8.0105    0.8764    0.0000 O   0  0  0  0  0  0  0  0  0  0  0  0
   -6.5928    1.3663    0.0000 C   0  0  0  0  0  0  0  0  0  0  0  0
   -6.3081    2.8390    0.0000 O   0  0  0  0  0  0  0  0  0  0  0  0
   -5.4597    0.3834    0.0000 C   0  0  0  0  0  0  0  0  0  0  0  0
   -5.5888   -1.1110    0.0000 C   0  0  0  0  0  0  0  0  0  0  0  0
   -4.2074   -1.6957    0.0000 S   0  0  0  0  0  0  0  0  0  0  0  0
   -3.2245   -0.5626    0.0000 C   0  0  0  0  0  0  0  0  0  0  0  0
   -1.7301   -0.6917    0.0000 C   0  0  0  0  0  0  0  0  0  0  0  0
   -0.9562   -1.9767    0.0000 N   0  0  0  0  0  0  0  0  0  0  0  0
    0.5050   -1.6377    0.0000 C   0  0  0  0  0  0  0  0  0  0  0  0
    1.7346   -2.4967    0.0000 C   0  0  0  0  0  0  0  0  0  0  0  0
    3.0934   -1.8614    0.0000 C   0  0  0  0  0  0  0  0  0  0  0  0
    3.2226   -0.3669    0.0000 C   0  0  0  0  0  0  0  0  0  0  0  0
    4.5814    0.2684    0.0000 N   0  0  0  0  0  0  0  0  0  0  0  0
    5.8110   -0.5906    0.0000 C   0  0  0  0  0  0  0  0  0  0  0  0
    7.1698    0.0447    0.0000 C   0  0  0  0  0  0  0  0  0  0  0  0
    7.2990    1.5392    0.0000 S   0  0  0  0  0  0  0  0  0  0  0  0
    6.0693    2.3982    0.0000 C   0  0  0  0  0  0  0  0  0  0  0  0
    4.7105    1.7629    0.0000 C   0  0  0  0  0  0  0  0  0  0  0  0
    1.9929    0.4921    0.0000 C   0  0  0  0  0  0  0  0  0  0  0  0
    0.6342   -0.1433    0.0000 C   0  0  0  0  0  0  0  0  0  0  0  0
   -0.7472    0.4414    0.0000 S   0  0  0  0  0  0  0  0  0  0  0  0
   -3.9985    0.7224    0.0000 N   0  0  0  0  0  0  0  0  0  0  0  0
  1  2  2  0
  2  3  1  0
  4  2  1  6
  4  5  1  0
  5  6  1  0
  6  7  1  0
  7  8  1  0
  8  9  2  0
  9 10  1  0
 10 11  1  0
 11 12  2  0
 12 13  1  0
 13 14  1  0
 14 15  1  0
 15 16  1  0
 16 17  1  0
 17 18  1  0
 18 19  1  0
 13 20  2  0
 20 21  1  0
 21 22  1  0
  7 23  2  0
 23  4  1  0
 22  8  1  0
 21 10  2  0
 19 14  1  0
M  END
>  <compound_id>  (19) 
AM17

>  <name>  (19) 
6'-(thiomorpholin-4-yl) luciferin

>  <structural_class>  (19) 
6'-Aminoluciferins, acyclic N-alkyl and pendant amine

>  <subfamily>  (19) 
benzothiazole

>  <smiles>  (19) 
O=C(O)[C@H]1CSC(c2nc3ccc(N4CCSCC4)cc3s2)=N1

>  <inchi>  (19) 
InChI=1S/C15H15N3O2S3/c19-15(20)11-8-22-13(17-11)14-16-10-2-1-9(7-12(10)23-14)18-3-5-21-6-4-18/h1-2,7,11H,3-6,8H2,(H,19,20)/t11-/m1/s1

>  <inchikey>  (19) 
DRWZCVXBBPJIHW-LLVKDONJSA-N

>  <molecular_formula>  (19) 
C15H15N3O2S3

>  <iupac_name>  (19) 
(S)-2-(6-thiomorpholinobenzothiazol-2-yl)-4,5-dihydrothiazole-4-carboxylic acid

$$$$
AM18
     RDKit          2D

 21 23  0  0  0  0  0  0  0  0999 V2000
   -7.8475   -0.5505    0.0000 C   0  0  0  0  0  0  0  0  0  0  0  0
   -6.4570    0.0123    0.0000 C   0  0  0  0  0  0  0  0  0  0  0  0
   -6.2493    1.4979    0.0000 O   0  0  0  0  0  0  0  0  0  0  0  0
   -5.2744   -0.9104    0.0000 N   0  0  0  0  0  0  0  0  0  0  0  0
   -3.8840   -0.3476    0.0000 C   0  0  0  0  0  0  0  0  0  0  0  0
   -3.6762    1.1380    0.0000 C   0  0  0  0  0  0  0  0  0  0  0  0
   -2.2858    1.7008    0.0000 C   0  0  0  0  0  0  0  0  0  0  0  0
   -1.1032    0.7781    0.0000 C   0  0  0  0  0  0  0  0  0  0  0  0
    0.3738    1.0395    0.0000 N   0  0  0  0  0  0  0  0  0  0  0  0
    1.0789   -0.2844    0.0000 C   0  0  0  0  0  0  0  0  0  0  0  0
    2.5645   -0.4922    0.0000 C   0  0  0  0  0  0  0  0  0  0  0  0
    3.6057    0.5875    0.0000 N   0  0  0  0  0  0  0  0  0  0  0  0
    4.9544   -0.0692    0.0000 C   0  0  0  0  0  0  0  0  0  0  0  0
    6.2783    0.6359    0.0000 C   0  0  0  0  0  0  0  0  0  0  0  0
    6.3297    2.1350    0.0000 O   0  0  0  0  0  0  0  0  0  0  0  0
    7.5509   -0.1581    0.0000 O   0  0  0  0  0  0  0  0  0  0  0  0
    4.7466   -1.5547    0.0000 C   0  0  0  0  0  0  0  0  0  0  0  0
    3.2695   -1.8162    0.0000 S   0  0  0  0  0  0  0  0  0  0  0  0
    0.0376   -1.3641    0.0000 S   0  0  0  0  0  0  0  0  0  0  0  0
   -1.3110   -0.7074    0.0000 C   0  0  0  0  0  0  0  0  0  0  0  0
   -2.7014   -1.2703    0.0000 C   0  0  0  0  0  0  0  0  0  0  0  0
  1  2  1  0
  2  3  2  0
  2  4  1  0
  4  5  1  0
  5  6  1  0
  6  7  2  0
  7  8  1  0
  8  9  1  0
  9 10  2  0
 10 11  1  0
 11 12  2  0
 12 13  1  0
 13 14  1  0
 14 15  2  0
 14 16  1  0
 13 17  1  0
 17 18  1  0
 10 19  1  0
 19 20  1  0
 20 21  1  0
 21  5  2  0
 20  8  2  0
 18 11  1  0
M  END
>  <compound_id>  (20) 
AM18

>  <name>  (20) 
6'-Acetylaminoluciferin

>  <structural_class>  (20) 
6'-Aminoluciferins, acyclic N-alkyl and pendant amine

>  <subfamily>  (20) 
benzothiazole

>  <smiles>  (20) 
CC(=O)Nc1ccc2nc(C3=NC(C(=O)O)CS3)sc2c1

>  <inchi>  (20) 
InChI=1S/C13H11N3O3S2/c1-6(17)14-7-2-3-8-10(4-7)21-12(15-8)11-16-9(5-20-11)13(18)19/h2-4,9H,5H2,1H3,(H,14,17)(H,18,19)

>  <inchikey>  (20) 
FLOBWSVGLOWARG-UHFFFAOYSA-N

>  <molecular_formula>  (20) 
C13H11N3O3S2

>  <iupac_name>  (20) 
2-(6-acetamido-1,3-benzothiazol-2-yl)-4,5-dihydro-1,3-thiazole-4-carboxylic acid

>  <stereochemistry>  (20) 
racemate

$$$$
AM19
     RDKit          2D

 20 22  0  0  0  0  0  0  0  0999 V2000
   -6.8649    0.5893    0.0000 C   0  0  0  0  0  0  0  0  0  0  0  0
   -5.7393   -0.4022    0.0000 N   0  0  0  0  0  0  0  0  0  0  0  0
   -6.0351   -1.8728    0.0000 C   0  0  0  0  0  0  0  0  0  0  0  0
   -4.3178    0.0768    0.0000 C   0  0  0  0  0  0  0  0  0  0  0  0
   -4.0220    1.5473    0.0000 C   0  0  0  0  0  0  0  0  0  0  0  0
   -2.6005    2.0264    0.0000 C   0  0  0  0  0  0  0  0  0  0  0  0
   -1.4749    1.0349    0.0000 C   0  0  0  0  0  0  0  0  0  0  0  0
    0.0150    1.2080    0.0000 N   0  0  0  0  0  0  0  0  0  0  0  0
    0.6401   -0.1556    0.0000 C   0  0  0  0  0  0  0  0  0  0  0  0
    2.1106   -0.4515    0.0000 C   0  0  0  0  0  0  0  0  0  0  0  0
    3.2143    0.5643    0.0000 N   0  0  0  0  0  0  0  0  0  0  0  0
    4.5214   -0.1715    0.0000 C   0  0  0  0  0  0  0  0  0  0  0  0
    5.8850    0.4535    0.0000 C   0  0  0  0  0  0  0  0  0  0  0  0
    6.0255    1.9469    0.0000 O   0  0  0  0  0  0  0  0  0  0  0  0
    7.1081   -0.4149    0.0000 O   0  0  0  0  0  0  0  0  0  0  0  0
    4.2256   -1.6420    0.0000 C   0  0  0  0  0  0  0  0  0  0  0  0
    2.7356   -1.8151    0.0000 S   0  0  0  0  0  0  0  0  0  0  0  0
   -0.4637   -1.1714    0.0000 S   0  0  0  0  0  0  0  0  0  0  0  0
   -1.7708   -0.4356    0.0000 C   0  0  0  0  0  0  0  0  0  0  0  0
   -3.1922   -0.9147    0.0000 C   0  0  0  0  0  0  0  0  0  0  0  0
  1  2  1  0
  2  3  1  0
  2  4  1  0
  4  5  1  0
  5  6  2  0
  6  7  1  0
  7  8  1  0
  8  9  2  0
  9 10  1  0
 10 11  2  0
 11 12  1  0
 12 13  1  1
 13 14  2  0
 13 15  1  0
 12 16  1  0
 16 17  1  0
  9 18  1  0
 18 19  1  0
 19 20  1  0
 20  4  2  0
 19  7  2  0
 17 10  1  0
M  END
>  <compound_id>  (21) 
AM19

>  <name>  (21) 
6'-Dimethylaminoluciferin

>  <structural_class>  (21) 
6'-Aminoluciferins, acyclic N-alkyl and pendant amine

>  <subfamily>  (21) 
benzothiazole

>  <smiles>  (21) 
CN(C)c1ccc2nc(C3=N[C@@H](C(=O)O)CS3)sc2c1

>  <inchi>  (21) 
InChI=1S/C13H13N3O2S2/c1-16(2)7-3-4-8-10(5-7)20-12(14-8)11-15-9(6-19-11)13(17)18/h3-5,9H,6H2,1-2H3,(H,17,18)/t9-/m1/s1

>  <inchikey>  (21) 
UTCWEJGXPUCZCO-SECBINFHSA-N

>  <molecular_formula>  (21) 
C13H13N3O2S2

>  <iupac_name>  (21) 
2-(6-Dimethylamino-benzothiazol-2-yl)-4,5-dihydro-thiazole-4-carboxylic acid (5b)

$$$$
AM20
     RDKit          2D

 19 21  0  0  0  0  0  0  0  0999 V2000
   -7.1964    0.2017    0.0000 C   0  0  0  0  0  0  0  0  0  0  0  0
   -6.0319   -0.7437    0.0000 N   0  0  0  0  0  0  0  0  0  0  0  0
   -4.6309   -0.2080    0.0000 C   0  0  0  0  0  0  0  0  0  0  0  0
   -4.3943    1.2733    0.0000 C   0  0  0  0  0  0  0  0  0  0  0  0
   -2.9933    1.8090    0.0000 C   0  0  0  0  0  0  0  0  0  0  0  0
   -1.8287    0.8636    0.0000 C   0  0  0  0  0  0  0  0  0  0  0  0
   -0.3469    1.0963    0.0000 N   0  0  0  0  0  0  0  0  0  0  0  0
    0.3324   -0.2410    0.0000 C   0  0  0  0  0  0  0  0  0  0  0  0
    1.8136   -0.4776    0.0000 C   0  0  0  0  0  0  0  0  0  0  0  0
    2.8756    0.5817    0.0000 N   0  0  0  0  0  0  0  0  0  0  0  0
    4.2113   -0.1010    0.0000 C   0  0  0  0  0  0  0  0  0  0  0  0
    5.5486    0.5783    0.0000 C   0  0  0  0  0  0  0  0  0  0  0  0
    5.6290    2.0762    0.0000 O   0  0  0  0  0  0  0  0  0  0  0  0
    6.8056   -0.2402    0.0000 O   0  0  0  0  0  0  0  0  0  0  0  0
    3.9747   -1.5822    0.0000 C   0  0  0  0  0  0  0  0  0  0  0  0
    2.4929   -1.8150    0.0000 S   0  0  0  0  0  0  0  0  0  0  0  0
   -0.7296   -1.3004    0.0000 S   0  0  0  0  0  0  0  0  0  0  0  0
   -2.0653   -0.6177    0.0000 C   0  0  0  0  0  0  0  0  0  0  0  0
   -3.4663   -1.1534    0.0000 C   0  0  0  0  0  0  0  0  0  0  0  0
  1  2  1  0
  2  3  1  0
  3  4  1  0
  4  5  2  0
  5  6  1  0
  6  7  1  0
  7  8  2  0
  8  9  1  0
  9 10  2  0
 10 11  1  0
 11 12  1  1
 12 13  2  0
 12 14  1  0
 11 15  1  0
 15 16  1  0
  8 17  1  0
 17 18  1  0
 18 19  1  0
 19  3  2  0
 18  6  2  0
 16  9  1  0
M  END
>  <compound_id>  (22) 
AM20

>  <name>  (22) 
6'-Methylaminoluciferin

>  <structural_class>  (22) 
6'-Aminoluciferins, acyclic N-alkyl and pendant amine

>  <subfamily>  (22) 
benzothiazole

>  <smiles>  (22) 
CNc1ccc2nc(C3=N[C@@H](C(=O)O)CS3)sc2c1

>  <inchi>  (22) 
InChI=1S/C12H11N3O2S2/c1-13-6-2-3-7-9(4-6)19-11(14-7)10-15-8(5-18-10)12(16)17/h2-4,8,13H,5H2,1H3,(H,16,17)/t8-/m1/s1

>  <inchikey>  (22) 
KXWSDEOBCOLCQT-MRVPVSSYSA-N

>  <molecular_formula>  (22) 
C12H11N3O2S2

>  <iupac_name>  (22) 
2-(6-Methylamino-benzothiazol-2-yl)-4,5-dihydro-thiazole-4-carboxylic acid (5a)

$$$$
AM21
     RDKit          2D

 18 20  0  0  0  0  0  0  0  0999 V2000
   -6.4362   -0.6918    0.0000 N   0  0  0  0  0  0  0  0  0  0  0  0
   -5.0318   -0.1649    0.0000 C   0  0  0  0  0  0  0  0  0  0  0  0
   -4.7859    1.3148    0.0000 C   0  0  0  0  0  0  0  0  0  0  0  0
   -3.3815    1.8417    0.0000 C   0  0  0  0  0  0  0  0  0  0  0  0
   -2.2230    0.8889    0.0000 C   0  0  0  0  0  0  0  0  0  0  0  0
   -0.7397    1.1122    0.0000 N   0  0  0  0  0  0  0  0  0  0  0  0
   -0.0689   -0.2294    0.0000 C   0  0  0  0  0  0  0  0  0  0  0  0
    1.4108   -0.4753    0.0000 C   0  0  0  0  0  0  0  0  0  0  0  0
    2.4795    0.5772    0.0000 N   0  0  0  0  0  0  0  0  0  0  0  0
    3.8108   -0.1139    0.0000 C   0  0  0  0  0  0  0  0  0  0  0  0
    5.1525    0.5569    0.0000 C   0  0  0  0  0  0  0  0  0  0  0  0
    5.2424    2.0542    0.0000 O   0  0  0  0  0  0  0  0  0  0  0  0
    6.4042   -0.2696    0.0000 O   0  0  0  0  0  0  0  0  0  0  0  0
    3.5649   -1.5936    0.0000 C   0  0  0  0  0  0  0  0  0  0  0  0
    2.0816   -1.8170    0.0000 S   0  0  0  0  0  0  0  0  0  0  0  0
   -1.1376   -1.2820    0.0000 S   0  0  0  0  0  0  0  0  0  0  0  0
   -2.4689   -0.5908    0.0000 C   0  0  0  0  0  0  0  0  0  0  0  0
   -3.8733   -1.1177    0.0000 C   0  0  0  0  0  0  0  0  0  0  0  0
  1  2  1  0
  2  3  1  0
  3  4  2  0
  4  5  1  0
  5  6  1  0
  6  7  2  0
  7  8  1  0
  8  9  2  0
  9 10  1  0
 10 11  1  1
 11 12  2  0
 11 13  1  0
 10 14  1  0
 14 15  1  0
  7 16  1  0
 16 17  1  0
 17 18  1  0
 18  2  2  0
 17  5  2  0
 15  8  1  0
M  END
>  <compound_id>  (23) 
AM21

>  <name>  (23) 
Aminoluciferin

>  <structural_class>  (23) 
6'-Aminoluciferins, acyclic N-alkyl and pendant amine

>  <subfamily>  (23) 
benzothiazole

>  <smiles>  (23) 
Nc1ccc2nc(C3=N[C@@H](C(=O)O)CS3)sc2c1

>  <inchi>  (23) 
InChI=1S/C11H9N3O2S2/c12-5-1-2-6-8(3-5)18-10(13-6)9-14-7(4-17-9)11(15)16/h1-3,7H,4,12H2,(H,15,16)/t7-/m1/s1

>  <inchikey>  (23) 
HKSJKXOOBAVPKR-SSDOTTSWSA-N

>  <molecular_formula>  (23) 
C11H9N3O2S2

>  <iupac_name>  (23) 
(4S)-2-(6-amino-1,3-benzothiazol-2-yl)-4,5-dihydro-1,3-thiazole-4-carboxylic acid

$$$$
AM22
     RDKit          2D

 22 25  0  0  0  0  0  0  0  0999 V2000
   -7.9225    0.2182    0.0000 O   0  0  0  0  0  0  0  0  0  0  0  0
   -6.5876    0.9023    0.0000 C   0  0  0  0  0  0  0  0  0  0  0  0
   -6.5125    2.4004    0.0000 O   0  0  0  0  0  0  0  0  0  0  0  0
   -5.3277    0.0883    0.0000 C   0  0  0  0  0  0  0  0  0  0  0  0
   -5.2457   -1.4095    0.0000 C   0  0  0  0  0  0  0  0  0  0  0  0
   -3.7959   -1.7944    0.0000 S   0  0  0  0  0  0  0  0  0  0  0  0
   -2.9819   -0.5345    0.0000 C   0  0  0  0  0  0  0  0  0  0  0  0
   -1.4841   -0.4525    0.0000 C   0  0  0  0  0  0  0  0  0  0  0  0
   -0.5374   -1.6160    0.0000 N   0  0  0  0  0  0  0  0  0  0  0  0
    0.8617   -1.0752    0.0000 C   0  0  0  0  0  0  0  0  0  0  0  0
    2.1998   -1.7531    0.0000 C   0  0  0  0  0  0  0  0  0  0  0  0
    3.4559   -0.9332    0.0000 C   0  0  0  0  0  0  0  0  0  0  0  0
    3.3739    0.5645    0.0000 C   0  0  0  0  0  0  0  0  0  0  0  0
    4.6300    1.3844    0.0000 N   0  0  0  0  0  0  0  0  0  0  0  0
    5.9681    0.7065    0.0000 C   0  0  0  0  0  0  0  0  0  0  0  0
    6.4349   -0.7190    0.0000 C   0  0  0  0  0  0  0  0  0  0  0  0
    7.8604   -0.2521    0.0000 C   0  0  0  0  0  0  0  0  0  0  0  0
    7.3936    1.1734    0.0000 C   0  0  0  0  0  0  0  0  0  0  0  0
    2.0358    1.2424    0.0000 C   0  0  0  0  0  0  0  0  0  0  0  0
    0.7797    0.4225    0.0000 C   0  0  0  0  0  0  0  0  0  0  0  0
   -0.6701    0.8074    0.0000 S   0  0  0  0  0  0  0  0  0  0  0  0
   -3.9286    0.6291    0.0000 N   0  0  0  0  0  0  0  0  0  0  0  0
  1  2  2  0
  2  3  1  0
  4  2  1  6
  4  5  1  0
  5  6  1  0
  6  7  1  0
  7  8  1  0
  8  9  2  0
  9 10  1  0
 10 11  1  0
 11 12  2  0
 12 13  1  0
 13 14  1  0
 14 15  1  0
 15 16  1  0
 16 17  1  0
 17 18  1  0
 13 19  2  0
 19 20  1  0
 20 21  1  0
  7 22  2  0
 22  4  1  0
 21  8  1  0
 20 10  2  0
 18 15  1  0
M  END
>  <compound_id>  (24) 
AM22

>  <name>  (24) 
cybLuc

>  <structural_class>  (24) 
6'-Aminoluciferins, acyclic N-alkyl and pendant amine

>  <subfamily>  (24) 
benzothiazole

>  <smiles>  (24) 
O=C(O)[C@H]1CSC(c2nc3ccc(NC4CCC4)cc3s2)=N1

>  <inchi>  (24) 
InChI=1S/C15H15N3O2S2/c19-15(20)11-7-21-13(18-11)14-17-10-5-4-9(6-12(10)22-14)16-8-2-1-3-8/h4-6,8,11,16H,1-3,7H2,(H,19,20)/t11-/m1/s1

>  <inchikey>  (24) 
DRLXXHYUKOJAOR-LLVKDONJSA-N

>  <molecular_formula>  (24) 
C15H15N3O2S2

>  <iupac_name>  (24) 
6-(cyclobutylamino)benzothiazole precursor 14a -> (S)-2-(6-(cyclobutylamino)benzothiazol-2-yl)-4,5-dihydrothiazole-4-carboxylic acid

$$$$
AM23
     RDKit          2D

 24 27  0  0  0  0  0  0  0  0999 V2000
   -8.5983    0.1824    0.0000 O   0  0  0  0  0  0  0  0  0  0  0  0
   -7.2687    0.8768    0.0000 C   0  0  0  0  0  0  0  0  0  0  0  0
   -7.2053    2.3754    0.0000 O   0  0  0  0  0  0  0  0  0  0  0  0
   -6.0026    0.0725    0.0000 C   0  0  0  0  0  0  0  0  0  0  0  0
   -5.9090   -1.4246    0.0000 C   0  0  0  0  0  0  0  0  0  0  0  0
   -4.4563   -1.7982    0.0000 S   0  0  0  0  0  0  0  0  0  0  0  0
   -3.6520   -0.5320    0.0000 C   0  0  0  0  0  0  0  0  0  0  0  0
   -2.1549   -0.4385    0.0000 C   0  0  0  0  0  0  0  0  0  0  0  0
   -1.1993   -1.5946    0.0000 N   0  0  0  0  0  0  0  0  0  0  0  0
    0.1956   -1.0430    0.0000 C   0  0  0  0  0  0  0  0  0  0  0  0
    1.5389   -1.7105    0.0000 C   0  0  0  0  0  0  0  0  0  0  0  0
    2.7886   -0.8810    0.0000 C   0  0  0  0  0  0  0  0  0  0  0  0
    2.6951    0.6161    0.0000 C   0  0  0  0  0  0  0  0  0  0  0  0
    3.9448    1.4457    0.0000 N   0  0  0  0  0  0  0  0  0  0  0  0
    5.2881    0.7782    0.0000 C   0  0  0  0  0  0  0  0  0  0  0  0
    5.3816   -0.7189    0.0000 C   0  0  0  0  0  0  0  0  0  0  0  0
    6.7249   -1.3864    0.0000 C   0  0  0  0  0  0  0  0  0  0  0  0
    7.9747   -0.5568    0.0000 C   0  0  0  0  0  0  0  0  0  0  0  0
    7.8811    0.9402    0.0000 C   0  0  0  0  0  0  0  0  0  0  0  0
    6.5378    1.6077    0.0000 C   0  0  0  0  0  0  0  0  0  0  0  0
    1.3518    1.2836    0.0000 C   0  0  0  0  0  0  0  0  0  0  0  0
    0.1020    0.4541    0.0000 C   0  0  0  0  0  0  0  0  0  0  0  0
   -1.3507    0.8277    0.0000 S   0  0  0  0  0  0  0  0  0  0  0  0
   -4.6077    0.6241    0.0000 N   0  0  0  0  0  0  0  0  0  0  0  0
  1  2  2  0
  2  3  1  0
  4  2  1  6
  4  5  1  0
  5  6  1  0
  6  7  1  0
  7  8  1  0
  8  9  2  0
  9 10  1  0
 10 11  1  0
 11 12  2  0
 12 13  1  0
 13 14  1  0
 14 15  1  0
 15 16  1  0
 16 17  1  0
 17 18  1  0
 18 19  1  0
 19 20  1  0
 13 21  2  0
 21 22  1  0
 22 23  1  0
  7 24  2  0
 24  4  1  0
 23  8  1  0
 22 10  2  0
 20 15  1  0
M  END
>  <compound_id>  (25) 
AM23

>  <name>  (25) 
cyhLuc

>  <structural_class>  (25) 
6'-Aminoluciferins, acyclic N-alkyl and pendant amine

>  <subfamily>  (25) 
benzothiazole

>  <smiles>  (25) 
O=C(O)[C@H]1CSC(c2nc3ccc(NC4CCCCC4)cc3s2)=N1

>  <inchi>  (25) 
InChI=1S/C17H19N3O2S2/c21-17(22)13-9-23-15(20-13)16-19-12-7-6-11(8-14(12)24-16)18-10-4-2-1-3-5-10/h6-8,10,13,18H,1-5,9H2,(H,21,22)/t13-/m1/s1

>  <inchikey>  (25) 
NIIGVBXLRQSTGA-CYBMUJFWSA-N

>  <molecular_formula>  (25) 
C17H19N3O2S2

>  <iupac_name>  (25) 
(S)-2-(6-(cyclohexylamino)benzothiazol-2-yl)-4,5-dihydrothiazole-4-carboxylic acid (from nitrile 14c, 6-(cyclohexylamino)benzothiazole-2-carbonitrile)

$$$$
AM24
     RDKit          2D

 23 26  0  0  0  0  0  0  0  0999 V2000
   -8.2655    0.2047    0.0000 O   0  0  0  0  0  0  0  0  0  0  0  0
   -6.9327    0.8927    0.0000 C   0  0  0  0  0  0  0  0  0  0  0  0
   -6.8621    2.3911    0.0000 O   0  0  0  0  0  0  0  0  0  0  0  0
   -5.6703    0.0825    0.0000 C   0  0  0  0  0  0  0  0  0  0  0  0
   -5.5838   -1.4150    0.0000 C   0  0  0  0  0  0  0  0  0  0  0  0
   -4.1329   -1.7955    0.0000 S   0  0  0  0  0  0  0  0  0  0  0  0
   -3.3227   -0.5332    0.0000 C   0  0  0  0  0  0  0  0  0  0  0  0
   -1.8252   -0.4467    0.0000 C   0  0  0  0  0  0  0  0  0  0  0  0
   -0.8750   -1.6074    0.0000 N   0  0  0  0  0  0  0  0  0  0  0  0
    0.5225   -1.0624    0.0000 C   0  0  0  0  0  0  0  0  0  0  0  0
    1.8626   -1.7362    0.0000 C   0  0  0  0  0  0  0  0  0  0  0  0
    3.1163   -0.9126    0.0000 C   0  0  0  0  0  0  0  0  0  0  0  0
    3.0298    0.5849    0.0000 C   0  0  0  0  0  0  0  0  0  0  0  0
    4.2834    1.4086    0.0000 N   0  0  0  0  0  0  0  0  0  0  0  0
    5.6235    0.7347    0.0000 C   0  0  0  0  0  0  0  0  0  0  0  0
    6.9564    1.4228    0.0000 C   0  0  0  0  0  0  0  0  0  0  0  0
    8.0227    0.3678    0.0000 C   0  0  0  0  0  0  0  0  0  0  0  0
    7.3488   -0.9723    0.0000 C   0  0  0  0  0  0  0  0  0  0  0  0
    5.8661   -0.7456    0.0000 C   0  0  0  0  0  0  0  0  0  0  0  0
    1.6897    1.2588    0.0000 C   0  0  0  0  0  0  0  0  0  0  0  0
    0.4360    0.4351    0.0000 C   0  0  0  0  0  0  0  0  0  0  0  0
   -1.0149    0.8156    0.0000 S   0  0  0  0  0  0  0  0  0  0  0  0
   -4.2728    0.6275    0.0000 N   0  0  0  0  0  0  0  0  0  0  0  0
  1  2  2  0
  2  3  1  0
  4  2  1  6
  4  5  1  0
  5  6  1  0
  6  7  1  0
  7  8  1  0
  8  9  2  0
  9 10  1  0
 10 11  1  0
 11 12  2  0
 12 13  1  0
 13 14  1  0
 14 15  1  0
 15 16  1  0
 16 17  1  0
 17 18  1  0
 18 19  1  0
 13 20  2  0
 20 21  1  0
 21 22  1  0
  7 23  2  0
 23  4  1  0
 22  8  1  0
 21 10  2  0
 19 15  1  0
M  END
>  <compound_id>  (26) 
AM24

>  <name>  (26) 
cypLuc

>  <structural_class>  (26) 
6'-Aminoluciferins, acyclic N-alkyl and pendant amine

>  <subfamily>  (26) 
benzothiazole

>  <smiles>  (26) 
O=C(O)[C@H]1CSC(c2nc3ccc(NC4CCCC4)cc3s2)=N1

>  <inchi>  (26) 
InChI=1S/C16H17N3O2S2/c20-16(21)12-8-22-14(19-12)15-18-11-6-5-10(7-13(11)23-15)17-9-3-1-2-4-9/h5-7,9,12,17H,1-4,8H2,(H,20,21)/t12-/m1/s1

>  <inchikey>  (26) 
ZVLHWOUVMAMCMT-GFCCVEGCSA-N

>  <molecular_formula>  (26) 
C16H17N3O2S2

>  <iupac_name>  (26) 
(S)-2-(6-(cyclopentylamino)benzothiazol-2-yl)-4,5-dihydrothiazole-4-carboxylic acid (from nitrile 14b, 6-(cyclopentylamino)benzothiazole-2-carbonitrile)

$$$$
AM25
     RDKit          2D

 22 24  0  0  0  0  0  0  0  0999 V2000
   -8.6218    0.2979    0.0000 N   0  0  0  0  0  0  0  0  0  0  0  0
   -7.4331   -0.6169    0.0000 C   0  0  0  0  0  0  0  0  0  0  0  0
   -6.0464   -0.0448    0.0000 C   0  0  0  0  0  0  0  0  0  0  0  0
   -5.8485    1.4421    0.0000 O   0  0  0  0  0  0  0  0  0  0  0  0
   -4.8577   -0.9596    0.0000 N   0  0  0  0  0  0  0  0  0  0  0  0
   -3.4711   -0.3876    0.0000 C   0  0  0  0  0  0  0  0  0  0  0  0
   -3.2732    1.0993    0.0000 C   0  0  0  0  0  0  0  0  0  0  0  0
   -1.8865    1.6714    0.0000 C   0  0  0  0  0  0  0  0  0  0  0  0
   -0.6978    0.7565    0.0000 C   0  0  0  0  0  0  0  0  0  0  0  0
    0.7775    1.0278    0.0000 N   0  0  0  0  0  0  0  0  0  0  0  0
    1.4913   -0.2914    0.0000 C   0  0  0  0  0  0  0  0  0  0  0  0
    2.9782   -0.4893    0.0000 C   0  0  0  0  0  0  0  0  0  0  0  0
    4.0123    0.5973    0.0000 N   0  0  0  0  0  0  0  0  0  0  0  0
    5.3653   -0.0504    0.0000 C   0  0  0  0  0  0  0  0  0  0  0  0
    6.6845    0.6635    0.0000 C   0  0  0  0  0  0  0  0  0  0  0  0
    6.7259    2.1629    0.0000 O   0  0  0  0  0  0  0  0  0  0  0  0
    7.9623   -0.1221    0.0000 O   0  0  0  0  0  0  0  0  0  0  0  0
    5.1674   -1.5373    0.0000 C   0  0  0  0  0  0  0  0  0  0  0  0
    3.6921   -1.8086    0.0000 S   0  0  0  0  0  0  0  0  0  0  0  0
    0.4573   -1.3780    0.0000 S   0  0  0  0  0  0  0  0  0  0  0  0
   -0.8957   -0.7303    0.0000 C   0  0  0  0  0  0  0  0  0  0  0  0
   -2.2823   -1.3024    0.0000 C   0  0  0  0  0  0  0  0  0  0  0  0
  1  2  1  0
  2  3  1  0
  3  4  2  0
  3  5  1  0
  5  6  1  0
  6  7  1  0
  7  8  2  0
  8  9  1  0
  9 10  1  0
 10 11  2  0
 11 12  1  0
 12 13  2  0
 13 14  1  0
 14 15  1  1
 15 16  2  0
 15 17  1  0
 14 18  1  0
 18 19  1  0
 11 20  1  0
 20 21  1  0
 21 22  1  0
 22  6  2  0
 21  9  2  0
 19 12  1  0
M  END
>  <compound_id>  (27) 
AM25

>  <name>  (27) 
glycine-D-aminoluciferin

>  <structural_class>  (27) 
6'-Aminoluciferins, acyclic N-alkyl and pendant amine

>  <subfamily>  (27) 
benzothiazole

>  <smiles>  (27) 
NCC(=O)Nc1ccc2nc(C3=N[C@@H](C(=O)O)CS3)sc2c1

>  <inchi>  (27) 
InChI=1S/C13H12N4O3S2/c14-4-10(18)15-6-1-2-7-9(3-6)22-12(16-7)11-17-8(5-21-11)13(19)20/h1-3,8H,4-5,14H2,(H,15,18)(H,19,20)/t8-/m1/s1

>  <inchikey>  (27) 
FAQBVGMMZNRKDK-MRVPVSSYSA-N

>  <molecular_formula>  (27) 
C13H12N4O3S2

>  <iupac_name>  (27) 
(4S)-2--4,5-dihydro-1,3-thiazole-4-carboxylic acid

$$$$
CY01
     RDKit          2D

 20 23  0  0  0  0  0  0  0  0999 V2000
    7.0865    0.0157    0.0000 O   0  0  0  0  0  0  0  0  0  0  0  0
    5.7883   -0.7357    0.0000 C   0  0  0  0  0  0  0  0  0  0  0  0
    5.7899   -2.2357    0.0000 O   0  0  0  0  0  0  0  0  0  0  0  0
    4.4884    0.0129    0.0000 C   0  0  0  0  0  0  0  0  0  0  0  0
    4.3300    1.5045    0.0000 C   0  0  0  0  0  0  0  0  0  0  0  0
    2.8625    1.8148    0.0000 S   0  0  0  0  0  0  0  0  0  0  0  0
    2.1139    0.5149    0.0000 C   0  0  0  0  0  0  0  0  0  0  0  0
    0.6223    0.3565    0.0000 C   0  0  0  0  0  0  0  0  0  0  0  0
   -0.3826    1.4702    0.0000 N   0  0  0  0  0  0  0  0  0  0  0  0
   -1.7523    0.8586    0.0000 C   0  0  0  0  0  0  0  0  0  0  0  0
   -3.1233    1.4672    0.0000 C   0  0  0  0  0  0  0  0  0  0  0  0
   -4.3358    0.5842    0.0000 C   0  0  0  0  0  0  0  0  0  0  0  0
   -4.1774   -0.9074    0.0000 C   0  0  0  0  0  0  0  0  0  0  0  0
   -2.8065   -1.5160    0.0000 C   0  0  0  0  0  0  0  0  0  0  0  0
   -1.5939   -0.6330    0.0000 C   0  0  0  0  0  0  0  0  0  0  0  0
   -0.1263   -0.9433    0.0000 S   0  0  0  0  0  0  0  0  0  0  0  0
   -5.5471   -1.5190    0.0000 N   0  0  0  0  0  0  0  0  0  0  0  0
   -6.5520   -0.4053    0.0000 C   0  0  0  0  0  0  0  0  0  0  0  0
   -5.8034    0.8945    0.0000 C   0  0  0  0  0  0  0  0  0  0  0  0
    3.1188   -0.5987    0.0000 N   0  0  0  0  0  0  0  0  0  0  0  0
  1  2  2  0
  2  3  1  0
  4  2  1  6
  4  5  1  0
  5  6  1  0
  6  7  1  0
  7  8  1  0
  8  9  2  0
  9 10  1  0
 10 11  1  0
 11 12  2  0
 12 13  1  0
 13 14  2  0
 14 15  1  0
 15 16  1  0
 13 17  1  0
 17 18  1  0
 18 19  1  0
  7 20  2  0
 20  4  1  0
 16  8  1  0
 15 10  2  0
 19 12  1  0
M  END
>  <compound_id>  (28) 
CY01

>  <name>  (28) 
CycLuc1

>  <structural_class>  (28) 
Conformationally restricted ring-fused aminoluciferins, the CycLuc series

>  <subfamily>  (28) 
benzothiazole

>  <smiles>  (28) 
O=C(O)[C@H]1CSC(c2nc3cc4c(cc3s2)NCC4)=N1

>  <inchi>  (28) 
InChI=1S/C13H11N3O2S2/c17-13(18)9-5-19-11(16-9)12-15-8-3-6-1-2-14-7(6)4-10(8)20-12/h3-4,9,14H,1-2,5H2,(H,17,18)/t9-/m1/s1

>  <inchikey>  (28) 
HBZBAMXERPYTFS-SECBINFHSA-N

>  <molecular_formula>  (28) 
C13H11N3O2S2

>  <iupac_name>  (28) 
(S)-2-(6,7-Dihydro-5H-thiazoloindol-2-yl)-4,5-dihydrothiazole-4-carboxylic acid

$$$$
CY02
     RDKit          2D

 22 25  0  0  0  0  0  0  0  0999 V2000
   -6.5089   -0.3693    0.0000 C   0  0  0  0  0  0  0  0  0  0  0  0
   -5.2471    0.4419    0.0000 N   0  0  0  0  0  0  0  0  0  0  0  0
   -5.3188    1.9402    0.0000 C   0  0  0  0  0  0  0  0  0  0  0  0
   -4.0570    2.7513    0.0000 C   0  0  0  0  0  0  0  0  0  0  0  0
   -2.7237    2.0642    0.0000 C   0  0  0  0  0  0  0  0  0  0  0  0
   -2.6520    0.5660    0.0000 C   0  0  0  0  0  0  0  0  0  0  0  0
   -3.9138   -0.2452    0.0000 C   0  0  0  0  0  0  0  0  0  0  0  0
   -3.8421   -1.7435    0.0000 C   0  0  0  0  0  0  0  0  0  0  0  0
   -2.5088   -2.4306    0.0000 C   0  0  0  0  0  0  0  0  0  0  0  0
   -1.2470   -1.6194    0.0000 C   0  0  0  0  0  0  0  0  0  0  0  0
    0.2001   -2.0143    0.0000 N   0  0  0  0  0  0  0  0  0  0  0  0
    1.0228   -0.7601    0.0000 C   0  0  0  0  0  0  0  0  0  0  0  0
    2.5211   -0.6884    0.0000 C   0  0  0  0  0  0  0  0  0  0  0  0
    3.3438    0.5658    0.0000 N   0  0  0  0  0  0  0  0  0  0  0  0
    4.7909    0.1710    0.0000 C   0  0  0  0  0  0  0  0  0  0  0  0
    5.9609    1.1096    0.0000 C   0  0  0  0  0  0  0  0  0  0  0  0
    5.7331    2.5922    0.0000 O   0  0  0  0  0  0  0  0  0  0  0  0
    7.3588    0.5656    0.0000 O   0  0  0  0  0  0  0  0  0  0  0  0
    4.8625   -1.3273    0.0000 C   0  0  0  0  0  0  0  0  0  0  0  0
    3.4597   -1.8584    0.0000 S   0  0  0  0  0  0  0  0  0  0  0  0
    0.0842    0.4100    0.0000 S   0  0  0  0  0  0  0  0  0  0  0  0
   -1.3187   -0.1211    0.0000 C   0  0  0  0  0  0  0  0  0  0  0  0
  1  2  1  0
  2  3  1  0
  3  4  1  0
  4  5  1  0
  5  6  1  0
  6  7  2  0
  7  8  1  0
  8  9  2  0
  9 10  1  0
 10 11  1  0
 11 12  2  0
 12 13  1  0
 13 14  2  0
 14 15  1  0
 15 16  1  1
 16 17  2  0
 16 18  1  0
 15 19  1  0
 19 20  1  0
 12 21  1  0
 21 22  1  0
  7  2  1  0
 22 10  2  0
 22  6  1  0
 20 13  1  0
M  END
>  <compound_id>  (29) 
CY02

>  <name>  (29) 
CycLuc10

>  <structural_class>  (29) 
Conformationally restricted ring-fused aminoluciferins, the CycLuc series

>  <subfamily>  (29) 
benzothiazole

>  <smiles>  (29) 
CN1CCCc2c1ccc1nc(C3=N[C@@H](C(=O)O)CS3)sc21

>  <inchi>  (29) 
InChI=1S/C15H15N3O2S2/c1-18-6-2-3-8-11(18)5-4-9-12(8)22-14(16-9)13-17-10(7-21-13)15(19)20/h4-5,10H,2-3,6-7H2,1H3,(H,19,20)/t10-/m1/s1

>  <inchikey>  (29) 
UQOQONVUZUYXBA-SNVBAGLBSA-N

>  <molecular_formula>  (29) 
C15H15N3O2S2

>  <iupac_name>  (29) 
2-(6-Methyl-6,7,8,9-tetrahydro-thiazoloquinolin-2-yl)-4,5-dihydro-thiazole-4-carboxylic acid

$$$$
CY03
     RDKit          2D

 23 26  0  0  0  0  0  0  0  0999 V2000
   -4.1723   -2.0452    0.0000 C   0  0  0  0  0  0  0  0  0  0  0  0
   -4.9458   -0.7601    0.0000 C   0  0  0  0  0  0  0  0  0  0  0  0
   -6.0771   -1.7450    0.0000 C   0  0  0  0  0  0  0  0  0  0  0  0
   -6.1122    0.1830    0.0000 C   0  0  0  0  0  0  0  0  0  0  0  0
   -5.8787    1.6647    0.0000 C   0  0  0  0  0  0  0  0  0  0  0  0
   -4.4788    2.2033    0.0000 N   0  0  0  0  0  0  0  0  0  0  0  0
   -3.3123    1.2602    0.0000 C   0  0  0  0  0  0  0  0  0  0  0  0
   -1.9124    1.7989    0.0000 C   0  0  0  0  0  0  0  0  0  0  0  0
   -0.7459    0.8558    0.0000 C   0  0  0  0  0  0  0  0  0  0  0  0
    0.7354    1.0915    0.0000 S   0  0  0  0  0  0  0  0  0  0  0  0
    1.4174   -0.2445    0.0000 C   0  0  0  0  0  0  0  0  0  0  0  0
    2.8991   -0.4780    0.0000 C   0  0  0  0  0  0  0  0  0  0  0  0
    3.9590    0.5835    0.0000 N   0  0  0  0  0  0  0  0  0  0  0  0
    5.2960   -0.0965    0.0000 C   0  0  0  0  0  0  0  0  0  0  0  0
    6.6320    0.5855    0.0000 C   0  0  0  0  0  0  0  0  0  0  0  0
    6.7094    2.0835    0.0000 O   0  0  0  0  0  0  0  0  0  0  0  0
    7.8906   -0.2305    0.0000 O   0  0  0  0  0  0  0  0  0  0  0  0
    5.0625   -1.5782    0.0000 C   0  0  0  0  0  0  0  0  0  0  0  0
    3.5811   -1.8140    0.0000 S   0  0  0  0  0  0  0  0  0  0  0  0
    0.3576   -1.3059    0.0000 N   0  0  0  0  0  0  0  0  0  0  0  0
   -0.9795   -0.6260    0.0000 C   0  0  0  0  0  0  0  0  0  0  0  0
   -2.3794   -1.1646    0.0000 C   0  0  0  0  0  0  0  0  0  0  0  0
   -3.5458   -0.2215    0.0000 C   0  0  0  0  0  0  0  0  0  0  0  0
  1  2  1  0
  2  3  1  0
  2  4  1  0
  4  5  1  0
  5  6  1  0
  6  7  1  0
  7  8  2  0
  8  9  1  0
  9 10  1  0
 10 11  1  0
 11 12  1  0
 12 13  2  0
 13 14  1  0
 14 15  1  1
 15 16  2  0
 15 17  1  0
 14 18  1  0
 18 19  1  0
 11 20  2  0
 20 21  1  0
 21 22  1  0
 22 23  2  0
 23  2  1  0
 23  7  1  0
 21  9  2  0
 19 12  1  0
M  END
>  <compound_id>  (30) 
CY03

>  <name>  (30) 
CycLuc11

>  <structural_class>  (30) 
Conformationally restricted ring-fused aminoluciferins, the CycLuc series

>  <subfamily>  (30) 
benzothiazole

>  <smiles>  (30) 
CC1(C)CCNc2cc3sc(C4=N[C@@H](C(=O)O)CS4)nc3cc21

>  <inchi>  (30) 
InChI=1S/C16H17N3O2S2/c1-16(2)3-4-17-9-6-12-10(5-8(9)16)18-14(23-12)13-19-11(7-22-13)15(20)21/h5-6,11,17H,3-4,7H2,1-2H3,(H,20,21)/t11-/m1/s1

>  <inchikey>  (30) 
TZRMMDQJCDKGOY-LLVKDONJSA-N

>  <molecular_formula>  (30) 
C16H17N3O2S2

>  <iupac_name>  (30) 
2-(8,8-Dimethyl-5,6,7,8-tetrahydro-thiazoloquinolin-2-yl)-4,5-dihydro-thiazole-4-carboxylic acid

$$$$
CY04
     RDKit          2D

 24 27  0  0  0  0  0  0  0  0999 V2000
    4.7915    3.0075    0.0000 C   0  0  0  0  0  0  0  0  0  0  0  0
    4.6862    1.5112    0.0000 N   0  0  0  0  0  0  0  0  0  0  0  0
    5.9294    0.6719    0.0000 C   0  0  0  0  0  0  0  0  0  0  0  0
    5.8241   -0.8244    0.0000 C   0  0  0  0  0  0  0  0  0  0  0  0
    4.4756   -1.4814    0.0000 C   0  0  0  0  0  0  0  0  0  0  0  0
    5.3567   -2.6953    0.0000 C   0  0  0  0  0  0  0  0  0  0  0  0
    3.4331   -2.5599    0.0000 C   0  0  0  0  0  0  0  0  0  0  0  0
    3.2324   -0.6421    0.0000 C   0  0  0  0  0  0  0  0  0  0  0  0
    1.8839   -1.2990    0.0000 C   0  0  0  0  0  0  0  0  0  0  0  0
    0.6407   -0.4597    0.0000 C   0  0  0  0  0  0  0  0  0  0  0  0
   -0.8149   -0.8219    0.0000 N   0  0  0  0  0  0  0  0  0  0  0  0
   -1.6092    0.4505    0.0000 C   0  0  0  0  0  0  0  0  0  0  0  0
   -3.1055    0.5558    0.0000 C   0  0  0  0  0  0  0  0  0  0  0  0
   -4.0702   -0.5928    0.0000 N   0  0  0  0  0  0  0  0  0  0  0  0
   -5.4607   -0.0303    0.0000 C   0  0  0  0  0  0  0  0  0  0  0  0
   -6.7331   -0.8246    0.0000 C   0  0  0  0  0  0  0  0  0  0  0  0
   -6.6814   -2.3237    0.0000 O   0  0  0  0  0  0  0  0  0  0  0  0
   -8.0572   -0.1198    0.0000 O   0  0  0  0  0  0  0  0  0  0  0  0
   -5.3554    1.4660    0.0000 C   0  0  0  0  0  0  0  0  0  0  0  0
   -3.8998    1.8283    0.0000 S   0  0  0  0  0  0  0  0  0  0  0  0
   -0.6445    1.5992    0.0000 S   0  0  0  0  0  0  0  0  0  0  0  0
    0.7460    1.0366    0.0000 C   0  0  0  0  0  0  0  0  0  0  0  0
    2.0945    1.6936    0.0000 C   0  0  0  0  0  0  0  0  0  0  0  0
    3.3377    0.8542    0.0000 C   0  0  0  0  0  0  0  0  0  0  0  0
  1  2  1  0
  2  3  1  0
  3  4  1  0
  4  5  1  0
  5  6  1  0
  5  7  1  0
  5  8  1  0
  8  9  2  0
  9 10  1  0
 10 11  1  0
 11 12  2  0
 12 13  1  0
 13 14  2  0
 14 15  1  0
 15 16  1  1
 16 17  2  0
 16 18  1  0
 15 19  1  0
 19 20  1  0
 12 21  1  0
 21 22  1  0
 22 23  1  0
 23 24  2  0
 24  2  1  0
 24  8  1  0
 22 10  2  0
 20 13  1  0
M  END
>  <compound_id>  (31) 
CY04

>  <name>  (31) 
CycLuc12

>  <structural_class>  (31) 
Conformationally restricted ring-fused aminoluciferins, the CycLuc series

>  <subfamily>  (31) 
benzothiazole

>  <smiles>  (31) 
CN1CCC(C)(C)c2cc3nc(C4=N[C@@H](C(=O)O)CS4)sc3cc21

>  <inchi>  (31) 
InChI=1S/C17H19N3O2S2/c1-17(2)4-5-20(3)12-7-13-10(6-9(12)17)18-15(24-13)14-19-11(8-23-14)16(21)22/h6-7,11H,4-5,8H2,1-3H3,(H,21,22)/t11-/m1/s1

>  <inchikey>  (31) 
KNODTRNYUXCDTA-LLVKDONJSA-N

>  <molecular_formula>  (31) 
C17H19N3O2S2

>  <iupac_name>  (31) 
2-(5,8,8-Trimethyl-5,6,7,8-tetrahydro-thiazoloquinolin-2-yl)-4,5-dihydro-thiazole-4-carboxylic acid

$$$$
CY05
     RDKit          2D

 21 24  0  0  0  0  0  0  0  0999 V2000
    5.7088   -2.5727    0.0000 C   0  0  0  0  0  0  0  0  0  0  0  0
    5.3283   -1.1218    0.0000 N   0  0  0  0  0  0  0  0  0  0  0  0
    6.2785    0.0389    0.0000 C   0  0  0  0  0  0  0  0  0  0  0  0
    5.4682    1.3012    0.0000 C   0  0  0  0  0  0  0  0  0  0  0  0
    4.0173    0.9207    0.0000 C   0  0  0  0  0  0  0  0  0  0  0  0
    2.7636    1.7444    0.0000 C   0  0  0  0  0  0  0  0  0  0  0  0
    1.4235    1.0705    0.0000 C   0  0  0  0  0  0  0  0  0  0  0  0
    0.0260    1.6155    0.0000 N   0  0  0  0  0  0  0  0  0  0  0  0
   -0.9241    0.4548    0.0000 C   0  0  0  0  0  0  0  0  0  0  0  0
   -2.4216    0.5413    0.0000 C   0  0  0  0  0  0  0  0  0  0  0  0
   -3.3718   -0.6194    0.0000 N   0  0  0  0  0  0  0  0  0  0  0  0
   -4.7693   -0.0743    0.0000 C   0  0  0  0  0  0  0  0  0  0  0  0
   -6.0316   -0.8846    0.0000 C   0  0  0  0  0  0  0  0  0  0  0  0
   -5.9611   -2.3829    0.0000 O   0  0  0  0  0  0  0  0  0  0  0  0
   -7.3645   -0.1965    0.0000 O   0  0  0  0  0  0  0  0  0  0  0  0
   -4.6828    1.4232    0.0000 C   0  0  0  0  0  0  0  0  0  0  0  0
   -3.2319    1.8037    0.0000 S   0  0  0  0  0  0  0  0  0  0  0  0
   -0.1139   -0.8075    0.0000 S   0  0  0  0  0  0  0  0  0  0  0  0
    1.3370   -0.4270    0.0000 C   0  0  0  0  0  0  0  0  0  0  0  0
    2.5907   -1.2506    0.0000 C   0  0  0  0  0  0  0  0  0  0  0  0
    3.9308   -0.5768    0.0000 C   0  0  0  0  0  0  0  0  0  0  0  0
  1  2  1  0
  2  3  1  0
  3  4  1  0
  4  5  1  0
  5  6  2  0
  6  7  1  0
  7  8  1  0
  8  9  2  0
  9 10  1  0
 10 11  2  0
 11 12  1  0
 12 13  1  1
 13 14  2  0
 13 15  1  0
 12 16  1  0
 16 17  1  0
  9 18  1  0
 18 19  1  0
 19 20  1  0
 20 21  2  0
 21  2  1  0
 21  5  1  0
 19  7  2  0
 17 10  1  0
M  END
>  <compound_id>  (32) 
CY05

>  <name>  (32) 
CycLuc2

>  <structural_class>  (32) 
Conformationally restricted ring-fused aminoluciferins, the CycLuc series

>  <subfamily>  (32) 
benzothiazole

>  <smiles>  (32) 
CN1CCc2cc3nc(C4=N[C@@H](C(=O)O)CS4)sc3cc21

>  <inchi>  (32) 
InChI=1S/C14H13N3O2S2/c1-17-3-2-7-4-8-11(5-10(7)17)21-13(15-8)12-16-9(6-20-12)14(18)19/h4-5,9H,2-3,6H2,1H3,(H,18,19)/t9-/m1/s1

>  <inchikey>  (32) 
FHDMDDBUGSVLGG-SECBINFHSA-N

>  <molecular_formula>  (32) 
C14H13N3O2S2

>  <iupac_name>  (32) 
2-(5-Methyl-6,7-dihydro-5H-thiazoloindol-2-yl)-4,5-dihydro-thiazole-4-carboxylic acid (16b)

$$$$
CY06
     RDKit          2D

 21 24  0  0  0  0  0  0  0  0999 V2000
   -7.4140    0.0175    0.0000 O   0  0  0  0  0  0  0  0  0  0  0  0
   -6.1103    0.7594    0.0000 C   0  0  0  0  0  0  0  0  0  0  0  0
   -6.1010    2.2593    0.0000 O   0  0  0  0  0  0  0  0  0  0  0  0
   -4.8159    0.0013    0.0000 C   0  0  0  0  0  0  0  0  0  0  0  0
   -4.6684   -1.4914    0.0000 C   0  0  0  0  0  0  0  0  0  0  0  0
   -3.2032   -1.8124    0.0000 S   0  0  0  0  0  0  0  0  0  0  0  0
   -2.4451   -0.5181    0.0000 C   0  0  0  0  0  0  0  0  0  0  0  0
   -0.9524   -0.3705    0.0000 C   0  0  0  0  0  0  0  0  0  0  0  0
   -0.1943    0.9238    0.0000 N   0  0  0  0  0  0  0  0  0  0  0  0
    1.2709    0.6028    0.0000 C   0  0  0  0  0  0  0  0  0  0  0  0
    2.4899    1.4770    0.0000 C   0  0  0  0  0  0  0  0  0  0  0  0
    3.8564    0.8583    0.0000 C   0  0  0  0  0  0  0  0  0  0  0  0
    4.0039   -0.6344    0.0000 C   0  0  0  0  0  0  0  0  0  0  0  0
    2.7850   -1.5085    0.0000 C   0  0  0  0  0  0  0  0  0  0  0  0
    1.4185   -0.8899    0.0000 C   0  0  0  0  0  0  0  0  0  0  0  0
    0.0444   -1.4915    0.0000 S   0  0  0  0  0  0  0  0  0  0  0  0
    5.3704   -1.2530    0.0000 N   0  0  0  0  0  0  0  0  0  0  0  0
    6.5894   -0.3789    0.0000 C   0  0  0  0  0  0  0  0  0  0  0  0
    6.4419    1.1138    0.0000 C   0  0  0  0  0  0  0  0  0  0  0  0
    5.0754    1.7325    0.0000 O   0  0  0  0  0  0  0  0  0  0  0  0
   -3.4418    0.6029    0.0000 N   0  0  0  0  0  0  0  0  0  0  0  0
  1  2  2  0
  2  3  1  0
  4  2  1  6
  4  5  1  0
  5  6  1  0
  6  7  1  0
  7  8  1  0
  8  9  2  0
  9 10  1  0
 10 11  1  0
 11 12  2  0
 12 13  1  0
 13 14  2  0
 14 15  1  0
 15 16  1  0
 13 17  1  0
 17 18  1  0
 18 19  1  0
 19 20  1  0
  7 21  2  0
 21  4  1  0
 16  8  1  0
 15 10  2  0
 20 12  1  0
M  END
>  <compound_id>  (33) 
CY06

>  <name>  (33) 
CycLuc3

>  <structural_class>  (33) 
Conformationally restricted ring-fused aminoluciferins, the CycLuc series

>  <subfamily>  (33) 
benzothiazole

>  <smiles>  (33) 
O=C(O)[C@H]1CSC(c2nc3cc4c(cc3s2)NCCO4)=N1

>  <inchi>  (33) 
InChI=1S/C13H11N3O3S2/c17-13(18)8-5-20-11(16-8)12-15-7-3-9-6(4-10(7)21-12)14-1-2-19-9/h3-4,8,14H,1-2,5H2,(H,17,18)/t8-/m1/s1

>  <inchikey>  (33) 
IJUZLBCLMBCYOZ-MRVPVSSYSA-N

>  <molecular_formula>  (33) 
C13H11N3O3S2

>  <iupac_name>  (33) 
2-(7,8-Dihydro-6H-5-oxa-1-thia-3,8-diaza-cyclopentanaphthalen-2-yl)-4,5-dihydro-thiazole-4-carboxylic acid

$$$$
CY07
     RDKit          2D

 22 25  0  0  0  0  0  0  0  0999 V2000
   -5.3615   -2.4220    0.0000 C   0  0  0  0  0  0  0  0  0  0  0  0
   -5.1583   -0.9358    0.0000 N   0  0  0  0  0  0  0  0  0  0  0  0
   -6.3437   -0.0167    0.0000 C   0  0  0  0  0  0  0  0  0  0  0  0
   -6.1404    1.4695    0.0000 C   0  0  0  0  0  0  0  0  0  0  0  0
   -4.7517    2.0365    0.0000 O   0  0  0  0  0  0  0  0  0  0  0  0
   -3.5663    1.1174    0.0000 C   0  0  0  0  0  0  0  0  0  0  0  0
   -2.1776    1.6844    0.0000 C   0  0  0  0  0  0  0  0  0  0  0  0
   -0.9922    0.7653    0.0000 C   0  0  0  0  0  0  0  0  0  0  0  0
    0.4840    1.0312    0.0000 N   0  0  0  0  0  0  0  0  0  0  0  0
    1.1931   -0.2906    0.0000 C   0  0  0  0  0  0  0  0  0  0  0  0
    2.6793   -0.4939    0.0000 C   0  0  0  0  0  0  0  0  0  0  0  0
    3.7173    0.5890    0.0000 N   0  0  0  0  0  0  0  0  0  0  0  0
    5.0679   -0.0636    0.0000 C   0  0  0  0  0  0  0  0  0  0  0  0
    6.3897    0.6455    0.0000 C   0  0  0  0  0  0  0  0  0  0  0  0
    6.4365    2.1448    0.0000 O   0  0  0  0  0  0  0  0  0  0  0  0
    7.6647   -0.1447    0.0000 O   0  0  0  0  0  0  0  0  0  0  0  0
    4.8646   -1.5497    0.0000 C   0  0  0  0  0  0  0  0  0  0  0  0
    3.3884   -1.8157    0.0000 S   0  0  0  0  0  0  0  0  0  0  0  0
    0.1551   -1.3734    0.0000 S   0  0  0  0  0  0  0  0  0  0  0  0
   -1.1955   -0.7209    0.0000 C   0  0  0  0  0  0  0  0  0  0  0  0
   -2.5842   -1.2879    0.0000 C   0  0  0  0  0  0  0  0  0  0  0  0
   -3.7696   -0.3688    0.0000 C   0  0  0  0  0  0  0  0  0  0  0  0
  1  2  1  0
  2  3  1  0
  3  4  1  0
  4  5  1  0
  5  6  1  0
  6  7  2  0
  7  8  1  0
  8  9  1  0
  9 10  2  0
 10 11  1  0
 11 12  2  0
 12 13  1  0
 13 14  1  1
 14 15  2  0
 14 16  1  0
 13 17  1  0
 17 18  1  0
 10 19  1  0
 19 20  1  0
 20 21  1  0
 21 22  2  0
 22  2  1  0
 22  6  1  0
 20  8  2  0
 18 11  1  0
M  END
>  <compound_id>  (34) 
CY07

>  <name>  (34) 
CycLuc4

>  <structural_class>  (34) 
Conformationally restricted ring-fused aminoluciferins, the CycLuc series

>  <subfamily>  (34) 
benzothiazole

>  <smiles>  (34) 
CN1CCOc2cc3nc(C4=N[C@@H](C(=O)O)CS4)sc3cc21

>  <inchi>  (34) 
InChI=1S/C14H13N3O3S2/c1-17-2-3-20-10-4-7-11(5-9(10)17)22-13(15-7)12-16-8(6-21-12)14(18)19/h4-5,8H,2-3,6H2,1H3,(H,18,19)/t8-/m1/s1

>  <inchikey>  (34) 
JUFUGZYFAJWNPQ-MRVPVSSYSA-N

>  <molecular_formula>  (34) 
C14H13N3O3S2

>  <iupac_name>  (34) 
2-(8-Methyl-7,8-dihydro-6H-5-oxa-1-thia-3,8-diaza-cyclopentanaphthalen-2-yl)-4,5-dihydro-thiazole-4-carboxylic acid

$$$$
CY08
     RDKit          2D

 24 27  0  0  0  0  0  0  0  0999 V2000
    4.6160    2.8743    0.0000 C   0  0  0  0  0  0  0  0  0  0  0  0
    4.4988    1.3789    0.0000 C   0  0  0  0  0  0  0  0  0  0  0  0
    5.7353    0.5297    0.0000 C   0  0  0  0  0  0  0  0  0  0  0  0
    5.6181   -0.9657    0.0000 C   0  0  0  0  0  0  0  0  0  0  0  0
    7.1112   -0.8214    0.0000 C   0  0  0  0  0  0  0  0  0  0  0  0
    6.0195   -2.4110    0.0000 C   0  0  0  0  0  0  0  0  0  0  0  0
    4.2645   -1.6119    0.0000 N   0  0  0  0  0  0  0  0  0  0  0  0
    3.0280   -0.7628    0.0000 C   0  0  0  0  0  0  0  0  0  0  0  0
    1.6743   -1.4090    0.0000 C   0  0  0  0  0  0  0  0  0  0  0  0
    0.4379   -0.5598    0.0000 C   0  0  0  0  0  0  0  0  0  0  0  0
   -1.0206   -0.9105    0.0000 S   0  0  0  0  0  0  0  0  0  0  0  0
   -1.8048    0.3682    0.0000 C   0  0  0  0  0  0  0  0  0  0  0  0
   -3.3002    0.4853    0.0000 C   0  0  0  0  0  0  0  0  0  0  0  0
   -4.2740   -0.6556    0.0000 N   0  0  0  0  0  0  0  0  0  0  0  0
   -5.6600   -0.0821    0.0000 C   0  0  0  0  0  0  0  0  0  0  0  0
   -6.9387   -0.8663    0.0000 C   0  0  0  0  0  0  0  0  0  0  0  0
   -6.8989   -2.3658    0.0000 O   0  0  0  0  0  0  0  0  0  0  0  0
   -8.2571   -0.1510    0.0000 O   0  0  0  0  0  0  0  0  0  0  0  0
   -5.5428    1.4133    0.0000 C   0  0  0  0  0  0  0  0  0  0  0  0
   -4.0844    1.7640    0.0000 S   0  0  0  0  0  0  0  0  0  0  0  0
   -0.8310    1.5091    0.0000 N   0  0  0  0  0  0  0  0  0  0  0  0
    0.5550    0.9356    0.0000 C   0  0  0  0  0  0  0  0  0  0  0  0
    1.9087    1.5818    0.0000 C   0  0  0  0  0  0  0  0  0  0  0  0
    3.1452    0.7326    0.0000 C   0  0  0  0  0  0  0  0  0  0  0  0
  1  2  1  0
  2  3  2  0
  3  4  1  0
  4  5  1  0
  4  6  1  0
  4  7  1  0
  7  8  1  0
  8  9  2  0
  9 10  1  0
 10 11  1  0
 11 12  1  0
 12 13  1  0
 13 14  2  0
 14 15  1  0
 15 16  1  1
 16 17  2  0
 16 18  1  0
 15 19  1  0
 19 20  1  0
 12 21  2  0
 21 22  1  0
 22 23  1  0
 23 24  2  0
 24  2  1  0
 24  8  1  0
 22 10  2  0
 20 13  1  0
M  END
>  <compound_id>  (35) 
CY08

>  <name>  (35) 
CycLuc5

>  <structural_class>  (35) 
Conformationally restricted ring-fused aminoluciferins, the CycLuc series

>  <subfamily>  (35) 
benzothiazole

>  <smiles>  (35) 
CC1=CC(C)(C)Nc2cc3sc(C4=N[C@@H](C(=O)O)CS4)nc3cc21

>  <inchi>  (35) 
InChI=1S/C17H17N3O2S2/c1-8-6-17(2,3)20-10-5-13-11(4-9(8)10)18-15(24-13)14-19-12(7-23-14)16(21)22/h4-6,12,20H,7H2,1-3H3,(H,21,22)/t12-/m1/s1

>  <inchikey>  (35) 
ZWUOZFHAJZTSPR-GFCCVEGCSA-N

>  <molecular_formula>  (35) 
C17H17N3O2S2

>  <iupac_name>  (35) 
2-(6,6,8-Trimethyl-5,6-dihydro-thiazoloquinolin-2-yl)-4,5-dihydro-thiazole-4-carboxylic acid

$$$$
CY09
     RDKit          2D

 25 28  0  0  0  0  0  0  0  0999 V2000
    4.3712    3.1124    0.0000 C   0  0  0  0  0  0  0  0  0  0  0  0
    4.2927    1.6145    0.0000 C   0  0  0  0  0  0  0  0  0  0  0  0
    5.5507    0.7975    0.0000 C   0  0  0  0  0  0  0  0  0  0  0  0
    5.4721   -0.7005    0.0000 C   0  0  0  0  0  0  0  0  0  0  0  0
    6.9610   -0.5177    0.0000 C   0  0  0  0  0  0  0  0  0  0  0  0
    5.9106   -2.1349    0.0000 C   0  0  0  0  0  0  0  0  0  0  0  0
    4.1356   -1.3814    0.0000 N   0  0  0  0  0  0  0  0  0  0  0  0
    4.0571   -2.8794    0.0000 C   0  0  0  0  0  0  0  0  0  0  0  0
    2.8776   -0.5644    0.0000 C   0  0  0  0  0  0  0  0  0  0  0  0
    1.5411   -1.2454    0.0000 C   0  0  0  0  0  0  0  0  0  0  0  0
    0.2831   -0.4284    0.0000 C   0  0  0  0  0  0  0  0  0  0  0  0
   -1.1658   -0.8166    0.0000 S   0  0  0  0  0  0  0  0  0  0  0  0
   -1.9827    0.4415    0.0000 C   0  0  0  0  0  0  0  0  0  0  0  0
   -3.4807    0.5200    0.0000 C   0  0  0  0  0  0  0  0  0  0  0  0
   -4.4247   -0.6457    0.0000 N   0  0  0  0  0  0  0  0  0  0  0  0
   -5.8250   -0.1081    0.0000 C   0  0  0  0  0  0  0  0  0  0  0  0
   -7.0831   -0.9250    0.0000 C   0  0  0  0  0  0  0  0  0  0  0  0
   -7.0046   -2.4230    0.0000 O   0  0  0  0  0  0  0  0  0  0  0  0
   -8.4195   -0.2440    0.0000 O   0  0  0  0  0  0  0  0  0  0  0  0
   -5.7465    1.3898    0.0000 C   0  0  0  0  0  0  0  0  0  0  0  0
   -4.2976    1.7780    0.0000 S   0  0  0  0  0  0  0  0  0  0  0  0
   -1.0387    1.6072    0.0000 N   0  0  0  0  0  0  0  0  0  0  0  0
    0.3617    1.0696    0.0000 C   0  0  0  0  0  0  0  0  0  0  0  0
    1.6982    1.7505    0.0000 C   0  0  0  0  0  0  0  0  0  0  0  0
    2.9562    0.9335    0.0000 C   0  0  0  0  0  0  0  0  0  0  0  0
  1  2  1  0
  2  3  2  0
  3  4  1  0
  4  5  1  0
  4  6  1  0
  4  7  1  0
  7  8  1  0
  7  9  1  0
  9 10  2  0
 10 11  1  0
 11 12  1  0
 12 13  1  0
 13 14  1  0
 14 15  2  0
 15 16  1  0
 16 17  1  1
 17 18  2  0
 17 19  1  0
 16 20  1  0
 20 21  1  0
 13 22  2  0
 22 23  1  0
 23 24  1  0
 24 25  2  0
 25  2  1  0
 25  9  1  0
 23 11  2  0
 21 14  1  0
M  END
>  <compound_id>  (36) 
CY09

>  <name>  (36) 
CycLuc6

>  <structural_class>  (36) 
Conformationally restricted ring-fused aminoluciferins, the CycLuc series

>  <subfamily>  (36) 
benzothiazole

>  <smiles>  (36) 
CC1=CC(C)(C)N(C)c2cc3sc(C4=N[C@@H](C(=O)O)CS4)nc3cc21

>  <inchi>  (36) 
InChI=1S/C18H19N3O2S2/c1-9-7-18(2,3)21(4)13-6-14-11(5-10(9)13)19-16(25-14)15-20-12(8-24-15)17(22)23/h5-7,12H,8H2,1-4H3,(H,22,23)/t12-/m1/s1

>  <inchikey>  (36) 
UZCFZDSRFKTGGM-GFCCVEGCSA-N

>  <molecular_formula>  (36) 
C18H19N3O2S2

>  <iupac_name>  (36) 
2-(5,6,6,8-Tetramethyl-5,6-dihydro-thiazoloquinolin-2-yl)-4,5-dihydro-thiazole-4-carboxylic acid

$$$$
CY10
     RDKit          2D

 21 24  0  0  0  0  0  0  0  0999 V2000
   -7.4140    0.0175    0.0000 O   0  0  0  0  0  0  0  0  0  0  0  0
   -6.1103    0.7594    0.0000 C   0  0  0  0  0  0  0  0  0  0  0  0
   -6.1010    2.2593    0.0000 O   0  0  0  0  0  0  0  0  0  0  0  0
   -4.8159    0.0013    0.0000 C   0  0  0  0  0  0  0  0  0  0  0  0
   -4.6684   -1.4914    0.0000 C   0  0  0  0  0  0  0  0  0  0  0  0
   -3.2032   -1.8124    0.0000 S   0  0  0  0  0  0  0  0  0  0  0  0
   -2.4451   -0.5181    0.0000 C   0  0  0  0  0  0  0  0  0  0  0  0
   -0.9524   -0.3705    0.0000 C   0  0  0  0  0  0  0  0  0  0  0  0
   -0.1943    0.9238    0.0000 N   0  0  0  0  0  0  0  0  0  0  0  0
    1.2709    0.6028    0.0000 C   0  0  0  0  0  0  0  0  0  0  0  0
    2.4899    1.4770    0.0000 C   0  0  0  0  0  0  0  0  0  0  0  0
    3.8564    0.8583    0.0000 C   0  0  0  0  0  0  0  0  0  0  0  0
    4.0039   -0.6344    0.0000 C   0  0  0  0  0  0  0  0  0  0  0  0
    2.7850   -1.5085    0.0000 C   0  0  0  0  0  0  0  0  0  0  0  0
    1.4185   -0.8899    0.0000 C   0  0  0  0  0  0  0  0  0  0  0  0
    0.0444   -1.4915    0.0000 S   0  0  0  0  0  0  0  0  0  0  0  0
    5.3704   -1.2530    0.0000 N   0  0  0  0  0  0  0  0  0  0  0  0
    6.5894   -0.3789    0.0000 C   0  0  0  0  0  0  0  0  0  0  0  0
    6.4419    1.1138    0.0000 C   0  0  0  0  0  0  0  0  0  0  0  0
    5.0754    1.7325    0.0000 C   0  0  0  0  0  0  0  0  0  0  0  0
   -3.4418    0.6029    0.0000 N   0  0  0  0  0  0  0  0  0  0  0  0
  1  2  2  0
  2  3  1  0
  4  2  1  6
  4  5  1  0
  5  6  1  0
  6  7  1  0
  7  8  1  0
  8  9  2  0
  9 10  1  0
 10 11  1  0
 11 12  2  0
 12 13  1  0
 13 14  2  0
 14 15  1  0
 15 16  1  0
 13 17  1  0
 17 18  1  0
 18 19  1  0
 19 20  1  0
  7 21  2  0
 21  4  1  0
 16  8  1  0
 15 10  2  0
 20 12  1  0
M  END
>  <compound_id>  (37) 
CY10

>  <name>  (37) 
CycLuc7

>  <structural_class>  (37) 
Conformationally restricted ring-fused aminoluciferins, the CycLuc series

>  <subfamily>  (37) 
benzothiazole

>  <smiles>  (37) 
O=C(O)[C@H]1CSC(c2nc3cc4c(cc3s2)NCCC4)=N1

>  <inchi>  (37) 
InChI=1S/C14H13N3O2S2/c18-14(19)10-6-20-12(17-10)13-16-9-4-7-2-1-3-15-8(7)5-11(9)21-13/h4-5,10,15H,1-3,6H2,(H,18,19)/t10-/m1/s1

>  <inchikey>  (37) 
BKYMBDMQGNICFU-SNVBAGLBSA-N

>  <molecular_formula>  (37) 
C14H13N3O2S2

>  <iupac_name>  (37) 
2-(5,6,7,8-Tetrahydro-thiazoloquinolin-2-yl)-4,5-dihydro-thiazole-4-carboxylic acid

$$$$
CY11
     RDKit          2D

 22 25  0  0  0  0  0  0  0  0999 V2000
   -5.3615   -2.4220    0.0000 C   0  0  0  0  0  0  0  0  0  0  0  0
   -5.1583   -0.9358    0.0000 N   0  0  0  0  0  0  0  0  0  0  0  0
   -6.3437   -0.0167    0.0000 C   0  0  0  0  0  0  0  0  0  0  0  0
   -6.1404    1.4695    0.0000 C   0  0  0  0  0  0  0  0  0  0  0  0
   -4.7517    2.0365    0.0000 C   0  0  0  0  0  0  0  0  0  0  0  0
   -3.5663    1.1174    0.0000 C   0  0  0  0  0  0  0  0  0  0  0  0
   -2.1776    1.6844    0.0000 C   0  0  0  0  0  0  0  0  0  0  0  0
   -0.9922    0.7653    0.0000 C   0  0  0  0  0  0  0  0  0  0  0  0
    0.4840    1.0312    0.0000 N   0  0  0  0  0  0  0  0  0  0  0  0
    1.1931   -0.2906    0.0000 C   0  0  0  0  0  0  0  0  0  0  0  0
    2.6793   -0.4939    0.0000 C   0  0  0  0  0  0  0  0  0  0  0  0
    3.7173    0.5890    0.0000 N   0  0  0  0  0  0  0  0  0  0  0  0
    5.0679   -0.0636    0.0000 C   0  0  0  0  0  0  0  0  0  0  0  0
    6.3897    0.6455    0.0000 C   0  0  0  0  0  0  0  0  0  0  0  0
    6.4365    2.1448    0.0000 O   0  0  0  0  0  0  0  0  0  0  0  0
    7.6647   -0.1447    0.0000 O   0  0  0  0  0  0  0  0  0  0  0  0
    4.8646   -1.5497    0.0000 C   0  0  0  0  0  0  0  0  0  0  0  0
    3.3884   -1.8157    0.0000 S   0  0  0  0  0  0  0  0  0  0  0  0
    0.1551   -1.3734    0.0000 S   0  0  0  0  0  0  0  0  0  0  0  0
   -1.1955   -0.7209    0.0000 C   0  0  0  0  0  0  0  0  0  0  0  0
   -2.5842   -1.2879    0.0000 C   0  0  0  0  0  0  0  0  0  0  0  0
   -3.7696   -0.3688    0.0000 C   0  0  0  0  0  0  0  0  0  0  0  0
  1  2  1  0
  2  3  1  0
  3  4  1  0
  4  5  1  0
  5  6  1  0
  6  7  2  0
  7  8  1  0
  8  9  1  0
  9 10  2  0
 10 11  1  0
 11 12  2  0
 12 13  1  0
 13 14  1  1
 14 15  2  0
 14 16  1  0
 13 17  1  0
 17 18  1  0
 10 19  1  0
 19 20  1  0
 20 21  1  0
 21 22  2  0
 22  2  1  0
 22  6  1  0
 20  8  2  0
 18 11  1  0
M  END
>  <compound_id>  (38) 
CY11

>  <name>  (38) 
CycLuc8

>  <structural_class>  (38) 
Conformationally restricted ring-fused aminoluciferins, the CycLuc series

>  <subfamily>  (38) 
benzothiazole

>  <smiles>  (38) 
CN1CCCc2cc3nc(C4=N[C@@H](C(=O)O)CS4)sc3cc21

>  <inchi>  (38) 
InChI=1S/C15H15N3O2S2/c1-18-4-2-3-8-5-9-12(6-11(8)18)22-14(16-9)13-17-10(7-21-13)15(19)20/h5-6,10H,2-4,7H2,1H3,(H,19,20)/t10-/m1/s1

>  <inchikey>  (38) 
QBNFGHAUCLVPHY-SNVBAGLBSA-N

>  <molecular_formula>  (38) 
C15H15N3O2S2

>  <iupac_name>  (38) 
2-(5-Methyl-5,6,7,8-tetrahydro-thiazoloquinolin-2-yl)-4,5-dihydro-thiazole-4-carboxylic acid

$$$$
CY12
     RDKit          2D

 21 24  0  0  0  0  0  0  0  0999 V2000
   -7.1444   -0.7379    0.0000 O   0  0  0  0  0  0  0  0  0  0  0  0
   -5.9983    0.2299    0.0000 C   0  0  0  0  0  0  0  0  0  0  0  0
   -6.2635    1.7063    0.0000 O   0  0  0  0  0  0  0  0  0  0  0  0
   -4.5872   -0.2787    0.0000 C   0  0  0  0  0  0  0  0  0  0  0  0
   -4.1692   -1.7192    0.0000 C   0  0  0  0  0  0  0  0  0  0  0  0
   -2.6700   -1.7669    0.0000 S   0  0  0  0  0  0  0  0  0  0  0  0
   -2.1614   -0.3557    0.0000 C   0  0  0  0  0  0  0  0  0  0  0  0
   -0.7208    0.0622    0.0000 C   0  0  0  0  0  0  0  0  0  0  0  0
   -0.2122    1.4734    0.0000 N   0  0  0  0  0  0  0  0  0  0  0  0
    1.2871    1.4258    0.0000 C   0  0  0  0  0  0  0  0  0  0  0  0
    2.3256    2.5080    0.0000 C   0  0  0  0  0  0  0  0  0  0  0  0
    3.7822    2.1497    0.0000 C   0  0  0  0  0  0  0  0  0  0  0  0
    4.2002    0.7091    0.0000 C   0  0  0  0  0  0  0  0  0  0  0  0
    3.1616   -0.3731    0.0000 C   0  0  0  0  0  0  0  0  0  0  0  0
    1.7050   -0.0148    0.0000 C   0  0  0  0  0  0  0  0  0  0  0  0
    0.4641   -0.8575    0.0000 S   0  0  0  0  0  0  0  0  0  0  0  0
    3.5796   -1.8137    0.0000 C   0  0  0  0  0  0  0  0  0  0  0  0
    5.0362   -2.1720    0.0000 C   0  0  0  0  0  0  0  0  0  0  0  0
    6.0748   -1.0898    0.0000 C   0  0  0  0  0  0  0  0  0  0  0  0
    5.6568    0.3508    0.0000 N   0  0  0  0  0  0  0  0  0  0  0  0
   -3.3463    0.5640    0.0000 N   0  0  0  0  0  0  0  0  0  0  0  0
  1  2  2  0
  2  3  1  0
  4  2  1  6
  4  5  1  0
  5  6  1  0
  6  7  1  0
  7  8  1  0
  8  9  2  0
  9 10  1  0
 10 11  1  0
 11 12  2  0
 12 13  1  0
 13 14  2  0
 14 15  1  0
 15 16  1  0
 14 17  1  0
 17 18  1  0
 18 19  1  0
 19 20  1  0
  7 21  2  0
 21  4  1  0
 16  8  1  0
 15 10  2  0
 20 13  1  0
M  END
>  <compound_id>  (39) 
CY12

>  <name>  (39) 
CycLuc9

>  <structural_class>  (39) 
Conformationally restricted ring-fused aminoluciferins, the CycLuc series

>  <subfamily>  (39) 
benzothiazole

>  <smiles>  (39) 
O=C(O)[C@H]1CSC(c2nc3ccc4c(c3s2)CCCN4)=N1

>  <inchi>  (39) 
InChI=1S/C14H13N3O2S2/c18-14(19)10-6-20-12(17-10)13-16-9-4-3-8-7(11(9)21-13)2-1-5-15-8/h3-4,10,15H,1-2,5-6H2,(H,18,19)/t10-/m1/s1

>  <inchikey>  (39) 
XOGNVQAVADGQHN-SNVBAGLBSA-N

>  <molecular_formula>  (39) 
C14H13N3O2S2

>  <iupac_name>  (39) 
2-(6,7,8,9-Tetrahydro-thiazoloquinolin-2-yl)-4,5-dihydro-thiazole-4-carboxylic acid

$$$$
SU01
     RDKit          2D

 36 39  0  0  0  0  0  0  0  0999 V2000
   -4.8967    5.0539    0.0000 C   0  0  0  0  0  0  0  0  0  0  0  0
   -5.6666    3.7666    0.0000 C   0  0  0  0  0  0  0  0  0  0  0  0
   -7.1665    3.7897    0.0000 C   0  0  0  0  0  0  0  0  0  0  0  0
   -4.9368    2.4561    0.0000 C   0  0  0  0  0  0  0  0  0  0  0  0
   -3.4369    2.4330    0.0000 C   0  0  0  0  0  0  0  0  0  0  0  0
   -2.7071    1.1225    0.0000 C   0  0  0  0  0  0  0  0  0  0  0  0
   -1.2073    1.0994    0.0000 C   0  0  0  0  0  0  0  0  0  0  0  0
   -0.4373    2.3867    0.0000 C   0  0  0  0  0  0  0  0  0  0  0  0
   -0.4774   -0.2111    0.0000 C   0  0  0  0  0  0  0  0  0  0  0  0
   -3.4770   -0.1648    0.0000 C   0  0  0  0  0  0  0  0  0  0  0  0
   -2.7472   -1.4753    0.0000 S   0  0  0  0  0  0  0  0  0  0  0  0
   -1.4367   -0.7454    0.0000 O   0  0  0  0  0  0  0  0  0  0  0  0
   -4.0576   -2.2051    0.0000 O   0  0  0  0  0  0  0  0  0  0  0  0
   -2.0173   -2.7857    0.0000 N   0  0  0  0  0  0  0  0  0  0  0  0
   -0.5175   -2.8089    0.0000 C   0  0  0  0  0  0  0  0  0  0  0  0
    0.2124   -4.1193    0.0000 C   0  0  0  0  0  0  0  0  0  0  0  0
    1.7122   -4.1425    0.0000 C   0  0  0  0  0  0  0  0  0  0  0  0
    2.4822   -2.8552    0.0000 C   0  0  0  0  0  0  0  0  0  0  0  0
    3.9540   -2.5660    0.0000 N   0  0  0  0  0  0  0  0  0  0  0  0
    4.1338   -1.0768    0.0000 C   0  0  0  0  0  0  0  0  0  0  0  0
    5.4443   -0.3469    0.0000 C   0  0  0  0  0  0  0  0  0  0  0  0
    5.6241    1.1423    0.0000 N   0  0  0  0  0  0  0  0  0  0  0  0
    7.0959    1.4315    0.0000 C   0  0  0  0  0  0  0  0  0  0  0  0
    7.7271    2.7922    0.0000 C   0  0  0  0  0  0  0  0  0  0  0  0
    6.8643    4.0192    0.0000 O   0  0  0  0  0  0  0  0  0  0  0  0
    9.2211    2.9259    0.0000 O   0  0  0  0  0  0  0  0  0  0  0  0
    7.8258    0.1210    0.0000 C   0  0  0  0  0  0  0  0  0  0  0  0
    6.8050   -0.9781    0.0000 S   0  0  0  0  0  0  0  0  0  0  0  0
    2.7731   -0.4456    0.0000 S   0  0  0  0  0  0  0  0  0  0  0  0
    1.7523   -1.5447    0.0000 C   0  0  0  0  0  0  0  0  0  0  0  0
    0.2525   -1.5216    0.0000 C   0  0  0  0  0  0  0  0  0  0  0  0
   -4.9769   -0.1417    0.0000 C   0  0  0  0  0  0  0  0  0  0  0  0
   -5.7468   -1.4290    0.0000 C   0  0  0  0  0  0  0  0  0  0  0  0
   -7.2466   -1.4058    0.0000 C   0  0  0  0  0  0  0  0  0  0  0  0
   -5.0170   -2.7394    0.0000 C   0  0  0  0  0  0  0  0  0  0  0  0
   -5.7067    1.1688    0.0000 C   0  0  0  0  0  0  0  0  0  0  0  0
  1  2  1  0
  2  3  1  0
  2  4  1  0
  4  5  2  0
  5  6  1  0
  6  7  1  0
  7  8  1  0
  7  9  1  0
  6 10  2  0
 10 11  1  0
 11 12  2  0
 11 13  2  0
 11 14  1  0
 14 15  1  0
 15 16  1  0
 16 17  2  0
 17 18  1  0
 18 19  1  0
 19 20  2  0
 20 21  1  0
 21 22  2  0
 22 23  1  0
 23 24  1  1
 24 25  2  0
 24 26  1  0
 23 27  1  0
 27 28  1  0
 20 29  1  0
 29 30  1  0
 30 31  1  0
 10 32  1  0
 32 33  1  0
 33 34  1  0
 33 35  1  0
 32 36  2  0
 36  4  1  0
 31 15  2  0
 30 18  2  0
 28 21  1  0
M  END
>  <compound_id>  (40) 
SU01

>  <name>  (40) 
6'-(2,4,6-triisopropylbenzenesulfonamidyl) luciferin

>  <structural_class>  (40) 
6'-Sulfonamidyl luciferins

>  <subfamily>  (40) 
benzothiazole

>  <smiles>  (40) 
CC(C)c1cc(C(C)C)c(S(=O)(=O)Nc2ccc3nc(C4=N[C@@H](C(=O)O)CS4)sc3c2)c(C(C)C)c1

>  <inchi>  (40) 
InChI=1S/C26H31N3O4S3/c1-13(2)16-9-18(14(3)4)23(19(10-16)15(5)6)36(32,33)29-17-7-8-20-22(11-17)35-25(27-20)24-28-21(12-34-24)26(30)31/h7-11,13-15,21,29H,12H2,1-6H3,(H,30,31)/t21-/m1/s1

>  <inchikey>  (40) 
CHWARRFJZSNONF-OAQYLSRUSA-N

>  <molecular_formula>  (40) 
C26H31N3O4S3

>  <iupac_name>  (40) 
(S)-2-(6-(2,4,6-triisopropylphenylsulfonamido)benzothiazol-2-yl)-4,5-dihydrothiazole-4-carboxylic acid

$$$$
SU02
     RDKit          2D

 29 32  0  0  0  0  0  0  0  0999 V2000
   -6.8920   -0.1992    0.0000 C   0  0  0  0  0  0  0  0  0  0  0  0
   -5.9667    0.9813    0.0000 C   0  0  0  0  0  0  0  0  0  0  0  0
   -6.5264    2.3730    0.0000 C   0  0  0  0  0  0  0  0  0  0  0  0
   -5.6011    3.5536    0.0000 C   0  0  0  0  0  0  0  0  0  0  0  0
   -4.1160    3.3425    0.0000 C   0  0  0  0  0  0  0  0  0  0  0  0
   -3.5563    1.9509    0.0000 C   0  0  0  0  0  0  0  0  0  0  0  0
   -2.0712    1.7398    0.0000 C   0  0  0  0  0  0  0  0  0  0  0  0
   -4.4816    0.7703    0.0000 C   0  0  0  0  0  0  0  0  0  0  0  0
   -3.9219   -0.6214    0.0000 S   0  0  0  0  0  0  0  0  0  0  0  0
   -2.5302   -0.0616    0.0000 O   0  0  0  0  0  0  0  0  0  0  0  0
   -5.3135   -1.1811    0.0000 O   0  0  0  0  0  0  0  0  0  0  0  0
   -3.3621   -2.0130    0.0000 N   0  0  0  0  0  0  0  0  0  0  0  0
   -1.8770   -2.2241    0.0000 C   0  0  0  0  0  0  0  0  0  0  0  0
   -1.3173   -3.6157    0.0000 C   0  0  0  0  0  0  0  0  0  0  0  0
    0.1678   -3.8268    0.0000 C   0  0  0  0  0  0  0  0  0  0  0  0
    1.0931   -2.6462    0.0000 C   0  0  0  0  0  0  0  0  0  0  0  0
    2.5896   -2.5439    0.0000 N   0  0  0  0  0  0  0  0  0  0  0  0
    2.9548   -1.0890    0.0000 C   0  0  0  0  0  0  0  0  0  0  0  0
    4.3464   -0.5293    0.0000 C   0  0  0  0  0  0  0  0  0  0  0  0
    4.7116    0.9256    0.0000 N   0  0  0  0  0  0  0  0  0  0  0  0
    6.2081    1.0279    0.0000 C   0  0  0  0  0  0  0  0  0  0  0  0
    7.0049    2.2987    0.0000 C   0  0  0  0  0  0  0  0  0  0  0  0
    6.3028    3.6242    0.0000 O   0  0  0  0  0  0  0  0  0  0  0  0
    8.5039    2.2440    0.0000 O   0  0  0  0  0  0  0  0  0  0  0  0
    6.7678   -0.3638    0.0000 C   0  0  0  0  0  0  0  0  0  0  0  0
    5.6172   -1.3262    0.0000 S   0  0  0  0  0  0  0  0  0  0  0  0
    1.6839   -0.2922    0.0000 S   0  0  0  0  0  0  0  0  0  0  0  0
    0.5334   -1.2546    0.0000 C   0  0  0  0  0  0  0  0  0  0  0  0
   -0.9517   -1.0435    0.0000 C   0  0  0  0  0  0  0  0  0  0  0  0
  1  2  1  0
  2  3  1  0
  3  4  2  0
  4  5  1  0
  5  6  2  0
  6  7  1  0
  6  8  1  0
  8  9  1  0
  9 10  2  0
  9 11  2  0
  9 12  1  0
 12 13  1  0
 13 14  1  0
 14 15  2  0
 15 16  1  0
 16 17  1  0
 17 18  2  0
 18 19  1  0
 19 20  2  0
 20 21  1  0
 21 22  1  1
 22 23  2  0
 22 24  1  0
 21 25  1  0
 25 26  1  0
 18 27  1  0
 27 28  1  0
 28 29  1  0
  8  2  2  0
 29 13  2  0
 28 16  2  0
 26 19  1  0
M  END
>  <compound_id>  (41) 
SU02

>  <name>  (41) 
6'-(2,6-dimethylbenzenesulfonamidyl) luciferin

>  <structural_class>  (41) 
6'-Sulfonamidyl luciferins

>  <subfamily>  (41) 
benzothiazole

>  <smiles>  (41) 
Cc1cccc(C)c1S(=O)(=O)Nc1ccc2nc(C3=N[C@@H](C(=O)O)CS3)sc2c1

>  <inchi>  (41) 
InChI=1S/C19H17N3O4S3/c1-10-4-3-5-11(2)16(10)29(25,26)22-12-6-7-13-15(8-12)28-18(20-13)17-21-14(9-27-17)19(23)24/h3-8,14,22H,9H2,1-2H3,(H,23,24)/t14-/m1/s1

>  <inchikey>  (41) 
KCWOVNJBVMISMM-CQSZACIVSA-N

>  <molecular_formula>  (41) 
C19H17N3O4S3

>  <iupac_name>  (41) 
(S)-2-(6-(2,6-dimethylphenylsulfonamido)benzothiazol-2-yl)-4,5-dihydrothiazole-4-carboxylic acid

$$$$
SU03
     RDKit          2D

 28 31  0  0  0  0  0  0  0  0999 V2000
   -6.9668   -0.0844    0.0000 C   0  0  0  0  0  0  0  0  0  0  0  0
   -6.0326    1.0891    0.0000 C   0  0  0  0  0  0  0  0  0  0  0  0
   -6.5818    2.4849    0.0000 C   0  0  0  0  0  0  0  0  0  0  0  0
   -5.6476    3.6585    0.0000 C   0  0  0  0  0  0  0  0  0  0  0  0
   -4.1642    3.4362    0.0000 C   0  0  0  0  0  0  0  0  0  0  0  0
   -3.6149    2.0404    0.0000 C   0  0  0  0  0  0  0  0  0  0  0  0
   -4.5492    0.8668    0.0000 C   0  0  0  0  0  0  0  0  0  0  0  0
   -4.0000   -0.5290    0.0000 S   0  0  0  0  0  0  0  0  0  0  0  0
   -2.6041    0.0202    0.0000 O   0  0  0  0  0  0  0  0  0  0  0  0
   -5.3958   -1.0782    0.0000 O   0  0  0  0  0  0  0  0  0  0  0  0
   -3.4507   -1.9249    0.0000 N   0  0  0  0  0  0  0  0  0  0  0  0
   -1.9673   -2.1472    0.0000 C   0  0  0  0  0  0  0  0  0  0  0  0
   -1.4181   -3.5430    0.0000 C   0  0  0  0  0  0  0  0  0  0  0  0
    0.0653   -3.7653    0.0000 C   0  0  0  0  0  0  0  0  0  0  0  0
    0.9996   -2.5917    0.0000 C   0  0  0  0  0  0  0  0  0  0  0  0
    2.4968   -2.5007    0.0000 N   0  0  0  0  0  0  0  0  0  0  0  0
    2.8729   -1.0487    0.0000 C   0  0  0  0  0  0  0  0  0  0  0  0
    4.2688   -0.4994    0.0000 C   0  0  0  0  0  0  0  0  0  0  0  0
    4.6449    0.9526    0.0000 N   0  0  0  0  0  0  0  0  0  0  0  0
    6.1421    1.0436    0.0000 C   0  0  0  0  0  0  0  0  0  0  0  0
    6.9486    2.3084    0.0000 C   0  0  0  0  0  0  0  0  0  0  0  0
    6.2565    3.6392    0.0000 O   0  0  0  0  0  0  0  0  0  0  0  0
    8.4471    2.2424    0.0000 O   0  0  0  0  0  0  0  0  0  0  0  0
    6.6914   -0.3522    0.0000 C   0  0  0  0  0  0  0  0  0  0  0  0
    5.5336   -1.3059    0.0000 S   0  0  0  0  0  0  0  0  0  0  0  0
    1.6082   -0.2422    0.0000 S   0  0  0  0  0  0  0  0  0  0  0  0
    0.4504   -1.1959    0.0000 C   0  0  0  0  0  0  0  0  0  0  0  0
   -1.0331   -0.9736    0.0000 C   0  0  0  0  0  0  0  0  0  0  0  0
  1  2  1  0
  2  3  2  0
  3  4  1  0
  4  5  2  0
  5  6  1  0
  6  7  2  0
  7  8  1  0
  8  9  2  0
  8 10  2  0
  8 11  1  0
 11 12  1  0
 12 13  1  0
 13 14  2  0
 14 15  1  0
 15 16  1  0
 16 17  2  0
 17 18  1  0
 18 19  2  0
 19 20  1  0
 20 21  1  1
 21 22  2  0
 21 23  1  0
 20 24  1  0
 24 25  1  0
 17 26  1  0
 26 27  1  0
 27 28  1  0
  7  2  1  0
 28 12  2  0
 27 15  2  0
 25 18  1  0
M  END
>  <compound_id>  (42) 
SU03

>  <name>  (42) 
6'-(2-methylbenzenesulfonamidyl) luciferin

>  <structural_class>  (42) 
6'-Sulfonamidyl luciferins

>  <subfamily>  (42) 
benzothiazole

>  <smiles>  (42) 
Cc1ccccc1S(=O)(=O)Nc1ccc2nc(C3=N[C@@H](C(=O)O)CS3)sc2c1

>  <inchi>  (42) 
InChI=1S/C18H15N3O4S3/c1-10-4-2-3-5-15(10)28(24,25)21-11-6-7-12-14(8-11)27-17(19-12)16-20-13(9-26-16)18(22)23/h2-8,13,21H,9H2,1H3,(H,22,23)/t13-/m1/s1

>  <inchikey>  (42) 
WJFZVDPPPMCJPL-CYBMUJFWSA-N

>  <molecular_formula>  (42) 
C18H15N3O4S3

>  <iupac_name>  (42) 
(S)-2-(6-(2-methylphenylsulfonamido)benzothiazol-2-yl)-4,5-dihydrothiazole-4-carboxylic acid

$$$$
SU04
     RDKit          2D

 29 32  0  0  0  0  0  0  0  0999 V2000
  -10.1862   -0.6571    0.0000 O   0  0  0  0  0  0  0  0  0  0  0  0
   -8.9632    0.2113    0.0000 C   0  0  0  0  0  0  0  0  0  0  0  0
   -9.1038    1.7047    0.0000 O   0  0  0  0  0  0  0  0  0  0  0  0
   -7.5996   -0.4136    0.0000 C   0  0  0  0  0  0  0  0  0  0  0  0
   -7.3037   -1.8841    0.0000 C   0  0  0  0  0  0  0  0  0  0  0  0
   -5.8137   -2.0571    0.0000 S   0  0  0  0  0  0  0  0  0  0  0  0
   -5.1887   -0.6934    0.0000 C   0  0  0  0  0  0  0  0  0  0  0  0
   -3.7182   -0.3975    0.0000 C   0  0  0  0  0  0  0  0  0  0  0  0
   -2.6144   -1.4132    0.0000 N   0  0  0  0  0  0  0  0  0  0  0  0
   -1.3074   -0.6773    0.0000 C   0  0  0  0  0  0  0  0  0  0  0  0
    0.1141   -1.1563    0.0000 C   0  0  0  0  0  0  0  0  0  0  0  0
    1.2397   -0.1648    0.0000 C   0  0  0  0  0  0  0  0  0  0  0  0
    0.9437    1.3058    0.0000 C   0  0  0  0  0  0  0  0  0  0  0  0
    2.0692    2.2973    0.0000 N   0  0  0  0  0  0  0  0  0  0  0  0
    3.4907    1.8184    0.0000 S   0  0  0  0  0  0  0  0  0  0  0  0
    3.0118    0.3969    0.0000 O   0  0  0  0  0  0  0  0  0  0  0  0
    3.9697    3.2398    0.0000 O   0  0  0  0  0  0  0  0  0  0  0  0
    4.9122    1.3394    0.0000 C   0  0  0  0  0  0  0  0  0  0  0  0
    5.2081   -0.1311    0.0000 C   0  0  0  0  0  0  0  0  0  0  0  0
    6.6296   -0.6101    0.0000 C   0  0  0  0  0  0  0  0  0  0  0  0
    6.9256   -2.0806    0.0000 C   0  0  0  0  0  0  0  0  0  0  0  0
    8.3470   -2.5596    0.0000 C   0  0  0  0  0  0  0  0  0  0  0  0
    9.4726   -1.5680    0.0000 C   0  0  0  0  0  0  0  0  0  0  0  0
    9.1766   -0.0975    0.0000 C   0  0  0  0  0  0  0  0  0  0  0  0
    7.7551    0.3815    0.0000 C   0  0  0  0  0  0  0  0  0  0  0  0
   -0.4778    1.7847    0.0000 C   0  0  0  0  0  0  0  0  0  0  0  0
   -1.6033    0.7932    0.0000 C   0  0  0  0  0  0  0  0  0  0  0  0
   -3.0933    0.9661    0.0000 S   0  0  0  0  0  0  0  0  0  0  0  0
   -6.2925    0.3223    0.0000 N   0  0  0  0  0  0  0  0  0  0  0  0
  1  2  2  0
  2  3  1  0
  4  2  1  6
  4  5  1  0
  5  6  1  0
  6  7  1  0
  7  8  1  0
  8  9  2  0
  9 10  1  0
 10 11  1  0
 11 12  2  0
 12 13  1  0
 13 14  1  0
 14 15  1  0
 15 16  2  0
 15 17  2  0
 15 18  1  0
 18 19  1  0
 19 20  1  0
 20 21  2  0
 21 22  1  0
 22 23  2  0
 23 24  1  0
 24 25  2  0
 13 26  2  0
 26 27  1  0
 27 28  1  0
  7 29  2  0
 29  4  1  0
 28  8  1  0
 27 10  2  0
 25 20  1  0
M  END
>  <compound_id>  (43) 
SU04

>  <name>  (43) 
6'-(2-phenylethanesulfonamidyl) luciferin

>  <structural_class>  (43) 
6'-Sulfonamidyl luciferins

>  <subfamily>  (43) 
benzothiazole

>  <smiles>  (43) 
O=C(O)[C@H]1CSC(c2nc3ccc(NS(=O)(=O)CCc4ccccc4)cc3s2)=N1

>  <inchi>  (43) 
InChI=1S/C19H17N3O4S3/c23-19(24)15-11-27-17(21-15)18-20-14-7-6-13(10-16(14)28-18)22-29(25,26)9-8-12-4-2-1-3-5-12/h1-7,10,15,22H,8-9,11H2,(H,23,24)/t15-/m1/s1

>  <inchikey>  (43) 
USGLANTUCOOSFU-OAHLLOKOSA-N

>  <molecular_formula>  (43) 
C19H17N3O4S3

>  <iupac_name>  (43) 
(S)-2-(6-(2-phenylethylsulfonamido)benzothiazol-2-yl)-4,5-dihydrothiazole-4-carboxylic acid

$$$$
SU05
     RDKit          2D

 28 30  0  0  0  0  0  0  0  0999 V2000
   -4.3645    3.4330    0.0000 C   0  0  0  0  0  0  0  0  0  0  0  0
   -3.6096    2.1368    0.0000 N   0  0  0  0  0  0  0  0  0  0  0  0
   -2.1096    2.1425    0.0000 C   0  0  0  0  0  0  0  0  0  0  0  0
   -1.3645    3.4443    0.0000 C   0  0  0  0  0  0  0  0  0  0  0  0
    0.1354    3.4500    0.0000 C   0  0  0  0  0  0  0  0  0  0  0  0
    0.8903    2.1538    0.0000 C   0  0  0  0  0  0  0  0  0  0  0  0
    2.3587    1.8475    0.0000 N   0  0  0  0  0  0  0  0  0  0  0  0
    2.5211    0.3563    0.0000 C   0  0  0  0  0  0  0  0  0  0  0  0
    3.8230   -0.3888    0.0000 C   0  0  0  0  0  0  0  0  0  0  0  0
    5.1910    0.2264    0.0000 N   0  0  0  0  0  0  0  0  0  0  0  0
    6.1989   -0.8845    0.0000 C   0  0  0  0  0  0  0  0  0  0  0  0
    7.6901   -0.7221    0.0000 C   0  0  0  0  0  0  0  0  0  0  0  0
    8.2950    0.6505    0.0000 O   0  0  0  0  0  0  0  0  0  0  0  0
    8.5763   -1.9323    0.0000 O   0  0  0  0  0  0  0  0  0  0  0  0
    5.4538   -2.1863    0.0000 C   0  0  0  0  0  0  0  0  0  0  0  0
    3.9854   -1.8800    0.0000 S   0  0  0  0  0  0  0  0  0  0  0  0
    1.1531   -0.2590    0.0000 S   0  0  0  0  0  0  0  0  0  0  0  0
    0.1452    0.8519    0.0000 C   0  0  0  0  0  0  0  0  0  0  0  0
   -1.3548    0.8463    0.0000 C   0  0  0  0  0  0  0  0  0  0  0  0
   -4.3547    0.8350    0.0000 S   0  0  0  0  0  0  0  0  0  0  0  0
   -3.0529    0.0899    0.0000 O   0  0  0  0  0  0  0  0  0  0  0  0
   -5.6566    1.5801    0.0000 O   0  0  0  0  0  0  0  0  0  0  0  0
   -5.0998   -0.4669    0.0000 C   0  0  0  0  0  0  0  0  0  0  0  0
   -4.3449   -1.7631    0.0000 C   0  0  0  0  0  0  0  0  0  0  0  0
   -5.0900   -3.0649    0.0000 C   0  0  0  0  0  0  0  0  0  0  0  0
   -5.8351   -4.3668    0.0000 F   0  0  0  0  0  0  0  0  0  0  0  0
   -3.7882   -3.8100    0.0000 F   0  0  0  0  0  0  0  0  0  0  0  0
   -6.3919   -2.3198    0.0000 F   0  0  0  0  0  0  0  0  0  0  0  0
  1  2  1  0
  2  3  1  0
  3  4  1  0
  4  5  2  0
  5  6  1  0
  6  7  1  0
  7  8  2  0
  8  9  1  0
  9 10  2  0
 10 11  1  0
 11 12  1  1
 12 13  2  0
 12 14  1  0
 11 15  1  0
 15 16  1  0
  8 17  1  0
 17 18  1  0
 18 19  1  0
  2 20  1  0
 20 21  2  0
 20 22  2  0
 20 23  1  0
 23 24  1  0
 24 25  1  0
 25 26  1  0
 25 27  1  0
 25 28  1  0
 19  3  2  0
 18  6  2  0
 16  9  1  0
M  END
>  <compound_id>  (44) 
SU05

>  <name>  (44) 
6'-(3,3,3-trifluoro-N-methylpropane-1-sulfonamidyl) luciferin

>  <structural_class>  (44) 
6'-Sulfonamidyl luciferins

>  <subfamily>  (44) 
benzothiazole

>  <smiles>  (44) 
CN(c1ccc2nc(C3=N[C@@H](C(=O)O)CS3)sc2c1)S(=O)(=O)CCC(F)(F)F

>  <inchi>  (44) 
InChI=1S/C15H14F3N3O4S3/c1-21(28(24,25)5-4-15(16,17)18)8-2-3-9-11(6-8)27-13(19-9)12-20-10(7-26-12)14(22)23/h2-3,6,10H,4-5,7H2,1H3,(H,22,23)/t10-/m1/s1

>  <inchikey>  (44) 
BEHHXYLTOZXMBU-SNVBAGLBSA-N

>  <molecular_formula>  (44) 
C15H14F3N3O4S3

>  <iupac_name>  (44) 
(S)-2-(6-(3,3,3-trifluoro-N-methylpropylsulfonamido)benzothiazol-2-yl)-4,5-dihydrothiazole-4-carboxylic acid

$$$$
SU06
     RDKit          2D

 27 29  0  0  0  0  0  0  0  0999 V2000
   -9.4591   -0.3358    0.0000 O   0  0  0  0  0  0  0  0  0  0  0  0
   -8.1956    0.4727    0.0000 C   0  0  0  0  0  0  0  0  0  0  0  0
   -8.2642    1.9711    0.0000 O   0  0  0  0  0  0  0  0  0  0  0  0
   -6.8637   -0.2172    0.0000 C   0  0  0  0  0  0  0  0  0  0  0  0
   -6.6389   -1.7002    0.0000 C   0  0  0  0  0  0  0  0  0  0  0  0
   -5.1590   -1.9447    0.0000 S   0  0  0  0  0  0  0  0  0  0  0  0
   -4.4691   -0.6128    0.0000 C   0  0  0  0  0  0  0  0  0  0  0  0
   -2.9861   -0.3880    0.0000 C   0  0  0  0  0  0  0  0  0  0  0  0
   -1.9325   -1.4557    0.0000 N   0  0  0  0  0  0  0  0  0  0  0  0
   -0.5915   -0.7837    0.0000 C   0  0  0  0  0  0  0  0  0  0  0  0
    0.8053   -1.3305    0.0000 C   0  0  0  0  0  0  0  0  0  0  0  0
    1.9773   -0.3943    0.0000 C   0  0  0  0  0  0  0  0  0  0  0  0
    1.7525    1.0887    0.0000 C   0  0  0  0  0  0  0  0  0  0  0  0
    2.9245    2.0249    0.0000 N   0  0  0  0  0  0  0  0  0  0  0  0
    4.3212    1.4781    0.0000 S   0  0  0  0  0  0  0  0  0  0  0  0
    3.7744    0.0813    0.0000 O   0  0  0  0  0  0  0  0  0  0  0  0
    4.8681    2.8748    0.0000 O   0  0  0  0  0  0  0  0  0  0  0  0
    5.7180    0.9312    0.0000 C   0  0  0  0  0  0  0  0  0  0  0  0
    5.9428   -0.5519    0.0000 C   0  0  0  0  0  0  0  0  0  0  0  0
    7.3395   -1.0987    0.0000 C   0  0  0  0  0  0  0  0  0  0  0  0
    8.7363   -1.6456    0.0000 F   0  0  0  0  0  0  0  0  0  0  0  0
    6.7927   -2.4955    0.0000 F   0  0  0  0  0  0  0  0  0  0  0  0
    7.8864    0.2980    0.0000 F   0  0  0  0  0  0  0  0  0  0  0  0
    0.3557    1.6356    0.0000 C   0  0  0  0  0  0  0  0  0  0  0  0
   -0.8162    0.6994    0.0000 C   0  0  0  0  0  0  0  0  0  0  0  0
   -2.2962    0.9439    0.0000 S   0  0  0  0  0  0  0  0  0  0  0  0
   -5.5227    0.4549    0.0000 N   0  0  0  0  0  0  0  0  0  0  0  0
  1  2  2  0
  2  3  1  0
  4  2  1  6
  4  5  1  0
  5  6  1  0
  6  7  1  0
  7  8  1  0
  8  9  2  0
  9 10  1  0
 10 11  1  0
 11 12  2  0
 12 13  1  0
 13 14  1  0
 14 15  1  0
 15 16  2  0
 15 17  2  0
 15 18  1  0
 18 19  1  0
 19 20  1  0
 20 21  1  0
 20 22  1  0
 20 23  1  0
 13 24  2  0
 24 25  1  0
 25 26  1  0
  7 27  2  0
 27  4  1  0
 26  8  1  0
 25 10  2  0
M  END
>  <compound_id>  (45) 
SU06

>  <name>  (45) 
6'-(3,3,3-trifluoropropane-1-sulfonamidyl) luciferin

>  <structural_class>  (45) 
6'-Sulfonamidyl luciferins

>  <subfamily>  (45) 
benzothiazole

>  <smiles>  (45) 
O=C(O)[C@H]1CSC(c2nc3ccc(NS(=O)(=O)CCC(F)(F)F)cc3s2)=N1

>  <inchi>  (45) 
InChI=1S/C14H12F3N3O4S3/c15-14(16,17)3-4-27(23,24)20-7-1-2-8-10(5-7)26-12(18-8)11-19-9(6-25-11)13(21)22/h1-2,5,9,20H,3-4,6H2,(H,21,22)/t9-/m1/s1

>  <inchikey>  (45) 
DHMGMGARYSOXMD-SECBINFHSA-N

>  <molecular_formula>  (45) 
C14H12F3N3O4S3

>  <iupac_name>  (45) 
(S)-2-(6-(3,3,3-trifluoropropylsulfonamido)benzothiazol-2-yl)-4,5-dihydrothiazole-4-carboxylic acid

$$$$
SU07
     RDKit          2D

 27 30  0  0  0  0  0  0  0  0999 V2000
   -9.4874    0.0518    0.0000 O   0  0  0  0  0  0  0  0  0  0  0  0
   -8.1722    0.7730    0.0000 C   0  0  0  0  0  0  0  0  0  0  0  0
   -8.1392    2.2726    0.0000 O   0  0  0  0  0  0  0  0  0  0  0  0
   -6.8900   -0.0054    0.0000 C   0  0  0  0  0  0  0  0  0  0  0  0
   -6.7660   -1.5003    0.0000 C   0  0  0  0  0  0  0  0  0  0  0  0
   -5.3060   -1.8444    0.0000 S   0  0  0  0  0  0  0  0  0  0  0  0
   -4.5276   -0.5622    0.0000 C   0  0  0  0  0  0  0  0  0  0  0  0
   -3.0328   -0.4382    0.0000 C   0  0  0  0  0  0  0  0  0  0  0  0
   -2.0538   -1.5748    0.0000 N   0  0  0  0  0  0  0  0  0  0  0  0
   -0.6704   -0.9950    0.0000 C   0  0  0  0  0  0  0  0  0  0  0  0
    0.6861   -1.6351    0.0000 C   0  0  0  0  0  0  0  0  0  0  0  0
    1.9188   -0.7803    0.0000 C   0  0  0  0  0  0  0  0  0  0  0  0
    1.7948    0.7146    0.0000 C   0  0  0  0  0  0  0  0  0  0  0  0
    3.0275    1.5693    0.0000 N   0  0  0  0  0  0  0  0  0  0  0  0
    4.3840    0.9292    0.0000 S   0  0  0  0  0  0  0  0  0  0  0  0
    3.7439   -0.4274    0.0000 O   0  0  0  0  0  0  0  0  0  0  0  0
    5.0242    2.2858    0.0000 O   0  0  0  0  0  0  0  0  0  0  0  0
    5.7406    0.2891    0.0000 C   0  0  0  0  0  0  0  0  0  0  0  0
    5.8645   -1.2058    0.0000 C   0  0  0  0  0  0  0  0  0  0  0  0
    7.2211   -1.8459    0.0000 C   0  0  0  0  0  0  0  0  0  0  0  0
    8.4537   -0.9911    0.0000 C   0  0  0  0  0  0  0  0  0  0  0  0
    8.3298    0.5037    0.0000 C   0  0  0  0  0  0  0  0  0  0  0  0
    6.9732    1.1438    0.0000 C   0  0  0  0  0  0  0  0  0  0  0  0
    0.4383    1.3547    0.0000 C   0  0  0  0  0  0  0  0  0  0  0  0
   -0.7943    0.4999    0.0000 C   0  0  0  0  0  0  0  0  0  0  0  0
   -2.2543    0.8440    0.0000 S   0  0  0  0  0  0  0  0  0  0  0  0
   -5.5065    0.5744    0.0000 N   0  0  0  0  0  0  0  0  0  0  0  0
  1  2  2  0
  2  3  1  0
  4  2  1  6
  4  5  1  0
  5  6  1  0
  6  7  1  0
  7  8  1  0
  8  9  2  0
  9 10  1  0
 10 11  1  0
 11 12  2  0
 12 13  1  0
 13 14  1  0
 14 15  1  0
 15 16  2  0
 15 17  2  0
 15 18  1  0
 18 19  2  0
 19 20  1  0
 20 21  2  0
 21 22  1  0
 22 23  2  0
 13 24  2  0
 24 25  1  0
 25 26  1  0
  7 27  2  0
 27  4  1  0
 26  8  1  0
 25 10  2  0
 23 18  1  0
M  END
>  <compound_id>  (46) 
SU07

>  <name>  (46) 
6'-(benzenesulfonamidyl) luciferin

>  <structural_class>  (46) 
6'-Sulfonamidyl luciferins

>  <subfamily>  (46) 
benzothiazole

>  <smiles>  (46) 
O=C(O)[C@H]1CSC(c2nc3ccc(NS(=O)(=O)c4ccccc4)cc3s2)=N1

>  <inchi>  (46) 
InChI=1S/C17H13N3O4S3/c21-17(22)13-9-25-15(19-13)16-18-12-7-6-10(8-14(12)26-16)20-27(23,24)11-4-2-1-3-5-11/h1-8,13,20H,9H2,(H,21,22)/t13-/m1/s1

>  <inchikey>  (46) 
COKJDWMJSMFXKD-CYBMUJFWSA-N

>  <molecular_formula>  (46) 
C17H13N3O4S3

>  <iupac_name>  (46) 
(S)-2-(6-(phenylsulfonamido)benzothiazol-2-yl)-4,5-dihydrothiazole-4-carboxylic acid

$$$$
SU08
     RDKit          2D

 25 27  0  0  0  0  0  0  0  0999 V2000
   -7.6708    3.4603    0.0000 C   0  0  0  0  0  0  0  0  0  0  0  0
   -7.6886    1.9604    0.0000 C   0  0  0  0  0  0  0  0  0  0  0  0
   -6.3986    1.1950    0.0000 C   0  0  0  0  0  0  0  0  0  0  0  0
   -6.4164   -0.3049    0.0000 C   0  0  0  0  0  0  0  0  0  0  0  0
   -5.1263   -1.0703    0.0000 S   0  0  0  0  0  0  0  0  0  0  0  0
   -4.3610    0.2198    0.0000 O   0  0  0  0  0  0  0  0  0  0  0  0
   -5.8917   -2.3603    0.0000 O   0  0  0  0  0  0  0  0  0  0  0  0
   -3.8363   -1.8356    0.0000 N   0  0  0  0  0  0  0  0  0  0  0  0
   -2.5284   -1.1011    0.0000 C   0  0  0  0  0  0  0  0  0  0  0  0
   -2.5106    0.3988    0.0000 C   0  0  0  0  0  0  0  0  0  0  0  0
   -1.2028    1.1333    0.0000 C   0  0  0  0  0  0  0  0  0  0  0  0
    0.0873    0.3679    0.0000 C   0  0  0  0  0  0  0  0  0  0  0  0
    1.5193    0.8145    0.0000 N   0  0  0  0  0  0  0  0  0  0  0  0
    2.3865   -0.4094    0.0000 C   0  0  0  0  0  0  0  0  0  0  0  0
    3.8864   -0.4272    0.0000 C   0  0  0  0  0  0  0  0  0  0  0  0
    4.7824    0.7757    0.0000 N   0  0  0  0  0  0  0  0  0  0  0  0
    6.2034    0.2953    0.0000 C   0  0  0  0  0  0  0  0  0  0  0  0
    7.4273    1.1625    0.0000 C   0  0  0  0  0  0  0  0  0  0  0  0
    7.2882    2.6560    0.0000 O   0  0  0  0  0  0  0  0  0  0  0  0
    8.7902    0.5362    0.0000 O   0  0  0  0  0  0  0  0  0  0  0  0
    6.1856   -1.2046    0.0000 C   0  0  0  0  0  0  0  0  0  0  0  0
    4.7536   -1.6511    0.0000 S   0  0  0  0  0  0  0  0  0  0  0  0
    1.4904   -1.6124    0.0000 S   0  0  0  0  0  0  0  0  0  0  0  0
    0.0695   -1.1320    0.0000 C   0  0  0  0  0  0  0  0  0  0  0  0
   -1.2384   -1.8665    0.0000 C   0  0  0  0  0  0  0  0  0  0  0  0
  1  2  1  0
  2  3  1  0
  3  4  1  0
  4  5  1  0
  5  6  2  0
  5  7  2  0
  5  8  1  0
  8  9  1  0
  9 10  1  0
 10 11  2  0
 11 12  1  0
 12 13  1  0
 13 14  2  0
 14 15  1  0
 15 16  2  0
 16 17  1  0
 17 18  1  1
 18 19  2  0
 18 20  1  0
 17 21  1  0
 21 22  1  0
 14 23  1  0
 23 24  1  0
 24 25  1  0
 25  9  2  0
 24 12  2  0
 22 15  1  0
M  END
>  <compound_id>  (47) 
SU08

>  <name>  (47) 
6'-(butane-1-sulfonamidyl) luciferin

>  <structural_class>  (47) 
6'-Sulfonamidyl luciferins

>  <subfamily>  (47) 
benzothiazole

>  <smiles>  (47) 
CCCCS(=O)(=O)Nc1ccc2nc(C3=N[C@@H](C(=O)O)CS3)sc2c1

>  <inchi>  (47) 
InChI=1S/C15H17N3O4S3/c1-2-3-6-25(21,22)18-9-4-5-10-12(7-9)24-14(16-10)13-17-11(8-23-13)15(19)20/h4-5,7,11,18H,2-3,6,8H2,1H3,(H,19,20)/t11-/m1/s1

>  <inchikey>  (47) 
RJQMXSCQXVZYQW-LLVKDONJSA-N

>  <molecular_formula>  (47) 
C15H17N3O4S3

>  <iupac_name>  (47) 
(S)-2-(6-(butylsulfonamido)benzothiazol-2-yl)-4,5-dihydrothiazole-4-carboxylic acid

$$$$
SU09
     RDKit          2D

 27 29  0  0  0  0  0  0  0  0999 V2000
   -8.8480    4.3550    0.0000 C   0  0  0  0  0  0  0  0  0  0  0  0
   -8.6909    2.8633    0.0000 C   0  0  0  0  0  0  0  0  0  0  0  0
   -7.3204    2.2535    0.0000 C   0  0  0  0  0  0  0  0  0  0  0  0
   -7.1632    0.7618    0.0000 C   0  0  0  0  0  0  0  0  0  0  0  0
   -5.7927    0.1521    0.0000 C   0  0  0  0  0  0  0  0  0  0  0  0
   -5.6355   -1.3397    0.0000 C   0  0  0  0  0  0  0  0  0  0  0  0
   -4.2650   -1.9494    0.0000 S   0  0  0  0  0  0  0  0  0  0  0  0
   -3.6553   -0.5789    0.0000 O   0  0  0  0  0  0  0  0  0  0  0  0
   -4.8748   -3.3199    0.0000 O   0  0  0  0  0  0  0  0  0  0  0  0
   -2.8945   -2.5592    0.0000 N   0  0  0  0  0  0  0  0  0  0  0  0
   -1.6812   -1.6772    0.0000 C   0  0  0  0  0  0  0  0  0  0  0  0
   -1.8384   -0.1854    0.0000 C   0  0  0  0  0  0  0  0  0  0  0  0
   -0.6252    0.6966    0.0000 C   0  0  0  0  0  0  0  0  0  0  0  0
    0.7453    0.0869    0.0000 C   0  0  0  0  0  0  0  0  0  0  0  0
    2.1155    0.6973    0.0000 N   0  0  0  0  0  0  0  0  0  0  0  0
    3.1195   -0.4171    0.0000 C   0  0  0  0  0  0  0  0  0  0  0  0
    4.6112   -0.2599    0.0000 C   0  0  0  0  0  0  0  0  0  0  0  0
    5.3609    1.0393    0.0000 N   0  0  0  0  0  0  0  0  0  0  0  0
    6.8282    0.7278    0.0000 C   0  0  0  0  0  0  0  0  0  0  0  0
    7.9426    1.7318    0.0000 C   0  0  0  0  0  0  0  0  0  0  0  0
    7.6304    3.1990    0.0000 O   0  0  0  0  0  0  0  0  0  0  0  0
    9.3693    1.2687    0.0000 O   0  0  0  0  0  0  0  0  0  0  0  0
    6.9854   -0.7639    0.0000 C   0  0  0  0  0  0  0  0  0  0  0  0
    5.6152   -1.3744    0.0000 S   0  0  0  0  0  0  0  0  0  0  0  0
    2.3698   -1.7164    0.0000 S   0  0  0  0  0  0  0  0  0  0  0  0
    0.9025   -1.4049    0.0000 C   0  0  0  0  0  0  0  0  0  0  0  0
   -0.3108   -2.2869    0.0000 C   0  0  0  0  0  0  0  0  0  0  0  0
  1  2  1  0
  2  3  1  0
  3  4  1  0
  4  5  1  0
  5  6  1  0
  6  7  1  0
  7  8  2  0
  7  9  2  0
  7 10  1  0
 10 11  1  0
 11 12  1  0
 12 13  2  0
 13 14  1  0
 14 15  1  0
 15 16  2  0
 16 17  1  0
 17 18  2  0
 18 19  1  0
 19 20  1  1
 20 21  2  0
 20 22  1  0
 19 23  1  0
 23 24  1  0
 16 25  1  0
 25 26  1  0
 26 27  1  0
 27 11  2  0
 26 14  2  0
 24 17  1  0
M  END
>  <compound_id>  (48) 
SU09

>  <name>  (48) 
6'-(hexane-1-sulfonamidyl) luciferin

>  <structural_class>  (48) 
6'-Sulfonamidyl luciferins

>  <subfamily>  (48) 
benzothiazole

>  <smiles>  (48) 
CCCCCCS(=O)(=O)Nc1ccc2nc(C3=N[C@@H](C(=O)O)CS3)sc2c1

>  <inchi>  (48) 
InChI=1S/C17H21N3O4S3/c1-2-3-4-5-8-27(23,24)20-11-6-7-12-14(9-11)26-16(18-12)15-19-13(10-25-15)17(21)22/h6-7,9,13,20H,2-5,8,10H2,1H3,(H,21,22)/t13-/m1/s1

>  <inchikey>  (48) 
BVCHFZPTSVLKAY-CYBMUJFWSA-N

>  <molecular_formula>  (48) 
C17H21N3O4S3

>  <iupac_name>  (48) 
(S)-2-(6-(hexylsulfonamido)benzothiazol-2-yl)-4,5-dihydrothiazole-4-carboxylic acid

$$$$
SU10
     RDKit          2D

 30 33  0  0  0  0  0  0  0  0999 V2000
   -6.2213    4.4290    0.0000 C   0  0  0  0  0  0  0  0  0  0  0  0
   -5.5822    3.0719    0.0000 C   0  0  0  0  0  0  0  0  0  0  0  0
   -4.0874    2.9468    0.0000 C   0  0  0  0  0  0  0  0  0  0  0  0
   -3.4483    1.5898    0.0000 C   0  0  0  0  0  0  0  0  0  0  0  0
   -1.9536    1.4647    0.0000 C   0  0  0  0  0  0  0  0  0  0  0  0
   -4.3041    0.3578    0.0000 C   0  0  0  0  0  0  0  0  0  0  0  0
   -3.6650   -0.9992    0.0000 S   0  0  0  0  0  0  0  0  0  0  0  0
   -2.3079   -0.3602    0.0000 O   0  0  0  0  0  0  0  0  0  0  0  0
   -5.0220   -1.6383    0.0000 O   0  0  0  0  0  0  0  0  0  0  0  0
   -3.0259   -2.3563    0.0000 N   0  0  0  0  0  0  0  0  0  0  0  0
   -1.5311   -2.4814    0.0000 C   0  0  0  0  0  0  0  0  0  0  0  0
   -0.8921   -3.8384    0.0000 C   0  0  0  0  0  0  0  0  0  0  0  0
    0.6027   -3.9635    0.0000 C   0  0  0  0  0  0  0  0  0  0  0  0
    1.4584   -2.7315    0.0000 C   0  0  0  0  0  0  0  0  0  0  0  0
    2.9465   -2.5431    0.0000 N   0  0  0  0  0  0  0  0  0  0  0  0
    3.2272   -1.0696    0.0000 C   0  0  0  0  0  0  0  0  0  0  0  0
    4.5842   -0.4305    0.0000 C   0  0  0  0  0  0  0  0  0  0  0  0
    4.8649    1.0430    0.0000 N   0  0  0  0  0  0  0  0  0  0  0  0
    6.3530    1.2315    0.0000 C   0  0  0  0  0  0  0  0  0  0  0  0
    7.0752    2.5461    0.0000 C   0  0  0  0  0  0  0  0  0  0  0  0
    6.2978    3.8290    0.0000 O   0  0  0  0  0  0  0  0  0  0  0  0
    8.5749    2.5780    0.0000 O   0  0  0  0  0  0  0  0  0  0  0  0
    6.9920   -0.1256    0.0000 C   0  0  0  0  0  0  0  0  0  0  0  0
    5.8989   -1.1527    0.0000 S   0  0  0  0  0  0  0  0  0  0  0  0
    1.9125   -0.3473    0.0000 S   0  0  0  0  0  0  0  0  0  0  0  0
    0.8193   -1.3745    0.0000 C   0  0  0  0  0  0  0  0  0  0  0  0
   -0.6754   -1.2494    0.0000 C   0  0  0  0  0  0  0  0  0  0  0  0
   -5.7988    0.4829    0.0000 C   0  0  0  0  0  0  0  0  0  0  0  0
   -6.6545   -0.7491    0.0000 C   0  0  0  0  0  0  0  0  0  0  0  0
   -6.4379    1.8399    0.0000 C   0  0  0  0  0  0  0  0  0  0  0  0
  1  2  1  0
  2  3  2  0
  3  4  1  0
  4  5  1  0
  4  6  2  0
  6  7  1  0
  7  8  2  0
  7  9  2  0
  7 10  1  0
 10 11  1  0
 11 12  1  0
 12 13  2  0
 13 14  1  0
 14 15  1  0
 15 16  2  0
 16 17  1  0
 17 18  2  0
 18 19  1  0
 19 20  1  1
 20 21  2  0
 20 22  1  0
 19 23  1  0
 23 24  1  0
 16 25  1  0
 25 26  1  0
 26 27  1  0
  6 28  1  0
 28 29  1  0
 28 30  2  0
 30  2  1  0
 27 11  2  0
 26 14  2  0
 24 17  1  0
M  END
>  <compound_id>  (49) 
SU10

>  <name>  (49) 
6'-(mesitylenesulfonamidyl) luciferin

>  <structural_class>  (49) 
6'-Sulfonamidyl luciferins

>  <subfamily>  (49) 
benzothiazole

>  <smiles>  (49) 
Cc1cc(C)c(S(=O)(=O)Nc2ccc3nc(C4=N[C@@H](C(=O)O)CS4)sc3c2)c(C)c1

>  <inchi>  (49) 
InChI=1S/C20H19N3O4S3/c1-10-6-11(2)17(12(3)7-10)30(26,27)23-13-4-5-14-16(8-13)29-19(21-14)18-22-15(9-28-18)20(24)25/h4-8,15,23H,9H2,1-3H3,(H,24,25)/t15-/m1/s1

>  <inchikey>  (49) 
JUTNPFJRQXZMDC-OAHLLOKOSA-N

>  <molecular_formula>  (49) 
C20H19N3O4S3

>  <iupac_name>  (49) 
(S)-2-(6-(2,4,6-trimethylphenylsulfonamido)benzothiazol-2-yl)-4,5-dihydrothiazole-4-carboxylic acid

$$$$
SU11
     RDKit          2D

 28 31  0  0  0  0  0  0  0  0999 V2000
   -2.8331    2.9229    0.0000 C   0  0  0  0  0  0  0  0  0  0  0  0
   -2.9401    1.4268    0.0000 N   0  0  0  0  0  0  0  0  0  0  0  0
   -1.6979    0.5860    0.0000 C   0  0  0  0  0  0  0  0  0  0  0  0
   -1.8049   -0.9102    0.0000 C   0  0  0  0  0  0  0  0  0  0  0  0
   -0.5627   -1.7510    0.0000 C   0  0  0  0  0  0  0  0  0  0  0  0
    0.7865   -1.0956    0.0000 C   0  0  0  0  0  0  0  0  0  0  0  0
    2.1764   -1.6597    0.0000 N   0  0  0  0  0  0  0  0  0  0  0  0
    3.1424   -0.5122    0.0000 C   0  0  0  0  0  0  0  0  0  0  0  0
    4.6386   -0.6192    0.0000 C   0  0  0  0  0  0  0  0  0  0  0  0
    5.6046    0.5283    0.0000 N   0  0  0  0  0  0  0  0  0  0  0  0
    6.9945   -0.0359    0.0000 C   0  0  0  0  0  0  0  0  0  0  0  0
    8.2679    0.7570    0.0000 C   0  0  0  0  0  0  0  0  0  0  0  0
    8.2179    2.2561    0.0000 O   0  0  0  0  0  0  0  0  0  0  0  0
    9.5911    0.0506    0.0000 O   0  0  0  0  0  0  0  0  0  0  0  0
    6.8875   -1.5320    0.0000 C   0  0  0  0  0  0  0  0  0  0  0  0
    5.4315   -1.8926    0.0000 S   0  0  0  0  0  0  0  0  0  0  0  0
    2.3496    0.7611    0.0000 S   0  0  0  0  0  0  0  0  0  0  0  0
    0.8936    0.4006    0.0000 C   0  0  0  0  0  0  0  0  0  0  0  0
   -0.3486    1.2414    0.0000 C   0  0  0  0  0  0  0  0  0  0  0  0
   -4.2893    0.7714    0.0000 S   0  0  0  0  0  0  0  0  0  0  0  0
   -3.6339   -0.5779    0.0000 O   0  0  0  0  0  0  0  0  0  0  0  0
   -4.9447    2.1206    0.0000 O   0  0  0  0  0  0  0  0  0  0  0  0
   -5.6386    0.1160    0.0000 C   0  0  0  0  0  0  0  0  0  0  0  0
   -6.8808    0.9568    0.0000 C   0  0  0  0  0  0  0  0  0  0  0  0
   -8.2300    0.3014    0.0000 C   0  0  0  0  0  0  0  0  0  0  0  0
   -8.3371   -1.1948    0.0000 C   0  0  0  0  0  0  0  0  0  0  0  0
   -7.0949   -2.0356    0.0000 C   0  0  0  0  0  0  0  0  0  0  0  0
   -5.7456   -1.3802    0.0000 C   0  0  0  0  0  0  0  0  0  0  0  0
  1  2  1  0
  2  3  1  0
  3  4  1  0
  4  5  2  0
  5  6  1  0
  6  7  1  0
  7  8  2  0
  8  9  1  0
  9 10  2  0
 10 11  1  0
 11 12  1  1
 12 13  2  0
 12 14  1  0
 11 15  1  0
 15 16  1  0
  8 17  1  0
 17 18  1  0
 18 19  1  0
  2 20  1  0
 20 21  2  0
 20 22  2  0
 20 23  1  0
 23 24  2  0
 24 25  1  0
 25 26  2  0
 26 27  1  0
 27 28  2  0
 19  3  2  0
 28 23  1  0
 18  6  2  0
 16  9  1  0
M  END
>  <compound_id>  (50) 
SU11

>  <name>  (50) 
6'-(N-methyl-benzenesulfonamidyl) luciferin

>  <structural_class>  (50) 
6'-Sulfonamidyl luciferins

>  <subfamily>  (50) 
benzothiazole

>  <smiles>  (50) 
CN(c1ccc2nc(C3=N[C@@H](C(=O)O)CS3)sc2c1)S(=O)(=O)c1ccccc1

>  <inchi>  (50) 
InChI=1S/C18H15N3O4S3/c1-21(28(24,25)12-5-3-2-4-6-12)11-7-8-13-15(9-11)27-17(19-13)16-20-14(10-26-16)18(22)23/h2-9,14H,10H2,1H3,(H,22,23)/t14-/m1/s1

>  <inchikey>  (50) 
CIJMKASKCAQKBH-CQSZACIVSA-N

>  <molecular_formula>  (50) 
C18H15N3O4S3

>  <iupac_name>  (50) 
(S)-2-(6-(N-methylphenylsulfonamido)benzothiazol-2-yl)-4,5-dihydrothiazole-4-carboxylic acid

$$$$
SU12
     RDKit          2D

 23 25  0  0  0  0  0  0  0  0999 V2000
   -5.9618    1.4298    0.0000 C   0  0  0  0  0  0  0  0  0  0  0  0
   -4.9282    0.3428    0.0000 N   0  0  0  0  0  0  0  0  0  0  0  0
   -3.4700    0.6943    0.0000 C   0  0  0  0  0  0  0  0  0  0  0  0
   -3.0454    2.1330    0.0000 C   0  0  0  0  0  0  0  0  0  0  0  0
   -1.5871    2.4846    0.0000 C   0  0  0  0  0  0  0  0  0  0  0  0
   -0.5536    1.3975    0.0000 C   0  0  0  0  0  0  0  0  0  0  0  0
    0.9459    1.4382    0.0000 N   0  0  0  0  0  0  0  0  0  0  0  0
    1.4480    0.0247    0.0000 C   0  0  0  0  0  0  0  0  0  0  0  0
    2.8866   -0.3999    0.0000 C   0  0  0  0  0  0  0  0  0  0  0  0
    4.0757    0.5144    0.0000 N   0  0  0  0  0  0  0  0  0  0  0  0
    5.3128   -0.3340    0.0000 C   0  0  0  0  0  0  0  0  0  0  0  0
    6.7262    0.1680    0.0000 C   0  0  0  0  0  0  0  0  0  0  0  0
    6.9982    1.6432    0.0000 O   0  0  0  0  0  0  0  0  0  0  0  0
    7.8678   -0.8050    0.0000 O   0  0  0  0  0  0  0  0  0  0  0  0
    4.8881   -1.7727    0.0000 C   0  0  0  0  0  0  0  0  0  0  0  0
    3.3887   -1.8134    0.0000 S   0  0  0  0  0  0  0  0  0  0  0  0
    0.2588   -0.8896    0.0000 S   0  0  0  0  0  0  0  0  0  0  0  0
   -0.9782   -0.0411    0.0000 C   0  0  0  0  0  0  0  0  0  0  0  0
   -2.4364   -0.3927    0.0000 C   0  0  0  0  0  0  0  0  0  0  0  0
   -5.3528   -1.0959    0.0000 S   0  0  0  0  0  0  0  0  0  0  0  0
   -5.7775   -2.5345    0.0000 C   0  0  0  0  0  0  0  0  0  0  0  0
   -3.9142   -1.5205    0.0000 O   0  0  0  0  0  0  0  0  0  0  0  0
   -6.7915   -0.6712    0.0000 O   0  0  0  0  0  0  0  0  0  0  0  0
  1  2  1  0
  2  3  1  0
  3  4  1  0
  4  5  2  0
  5  6  1  0
  6  7  1  0
  7  8  2  0
  8  9  1  0
  9 10  2  0
 10 11  1  0
 11 12  1  1
 12 13  2  0
 12 14  1  0
 11 15  1  0
 15 16  1  0
  8 17  1  0
 17 18  1  0
 18 19  1  0
  2 20  1  0
 20 21  1  0
 20 22  2  0
 20 23  2  0
 19  3  2  0
 18  6  2  0
 16  9  1  0
M  END
>  <compound_id>  (51) 
SU12

>  <name>  (51) 
6'-(N-methyl-methanesulfonamidyl) luciferin

>  <structural_class>  (51) 
6'-Sulfonamidyl luciferins

>  <subfamily>  (51) 
benzothiazole

>  <smiles>  (51) 
CN(c1ccc2nc(C3=N[C@@H](C(=O)O)CS3)sc2c1)S(C)(=O)=O

>  <inchi>  (51) 
InChI=1S/C13H13N3O4S3/c1-16(23(2,19)20)7-3-4-8-10(5-7)22-12(14-8)11-15-9(6-21-11)13(17)18/h3-5,9H,6H2,1-2H3,(H,17,18)/t9-/m1/s1

>  <inchikey>  (51) 
HLXVEMHHUWBYTE-SECBINFHSA-N

>  <molecular_formula>  (51) 
C13H13N3O4S3

>  <iupac_name>  (51) 
(S)-2-(6-(N-methylmethylsulfonamido)benzothiazol-2-yl)-4,5-dihydrothiazole-4-carboxylic acid

$$$$
SU13
     RDKit          2D

 29 31  0  0  0  0  0  0  0  0999 V2000
  -10.3533    4.7945    0.0000 C   0  0  0  0  0  0  0  0  0  0  0  0
  -10.0092    3.3346    0.0000 C   0  0  0  0  0  0  0  0  0  0  0  0
   -8.5727    2.9026    0.0000 C   0  0  0  0  0  0  0  0  0  0  0  0
   -8.2285    1.4426    0.0000 C   0  0  0  0  0  0  0  0  0  0  0  0
   -6.7921    1.0107    0.0000 C   0  0  0  0  0  0  0  0  0  0  0  0
   -6.4479   -0.4493    0.0000 C   0  0  0  0  0  0  0  0  0  0  0  0
   -5.0114   -0.8812    0.0000 C   0  0  0  0  0  0  0  0  0  0  0  0
   -4.6672   -2.3412    0.0000 C   0  0  0  0  0  0  0  0  0  0  0  0
   -3.2308   -2.7731    0.0000 S   0  0  0  0  0  0  0  0  0  0  0  0
   -2.7988   -1.3366    0.0000 O   0  0  0  0  0  0  0  0  0  0  0  0
   -3.6627   -4.2096    0.0000 O   0  0  0  0  0  0  0  0  0  0  0  0
   -1.7943   -3.2050    0.0000 N   0  0  0  0  0  0  0  0  0  0  0  0
   -0.7020   -2.1770    0.0000 C   0  0  0  0  0  0  0  0  0  0  0  0
   -1.0462   -0.7170    0.0000 C   0  0  0  0  0  0  0  0  0  0  0  0
    0.0461    0.3111    0.0000 C   0  0  0  0  0  0  0  0  0  0  0  0
    1.4826   -0.1209    0.0000 C   0  0  0  0  0  0  0  0  0  0  0  0
    2.7647    0.6576    0.0000 N   0  0  0  0  0  0  0  0  0  0  0  0
    3.9013   -0.3212    0.0000 C   0  0  0  0  0  0  0  0  0  0  0  0
    5.3613    0.0229    0.0000 C   0  0  0  0  0  0  0  0  0  0  0  0
    5.9410    1.4064    0.0000 N   0  0  0  0  0  0  0  0  0  0  0  0
    7.4359    1.2826    0.0000 C   0  0  0  0  0  0  0  0  0  0  0  0
    8.4148    2.4192    0.0000 C   0  0  0  0  0  0  0  0  0  0  0  0
    7.9199    3.8352    0.0000 O   0  0  0  0  0  0  0  0  0  0  0  0
    9.8885    2.1398    0.0000 O   0  0  0  0  0  0  0  0  0  0  0  0
    7.7801   -0.1774    0.0000 C   0  0  0  0  0  0  0  0  0  0  0  0
    6.4979   -0.9559    0.0000 S   0  0  0  0  0  0  0  0  0  0  0  0
    3.3216   -1.7047    0.0000 S   0  0  0  0  0  0  0  0  0  0  0  0
    1.8268   -1.5808    0.0000 C   0  0  0  0  0  0  0  0  0  0  0  0
    0.7345   -2.6089    0.0000 C   0  0  0  0  0  0  0  0  0  0  0  0
  1  2  1  0
  2  3  1  0
  3  4  1  0
  4  5  1  0
  5  6  1  0
  6  7  1  0
  7  8  1  0
  8  9  1  0
  9 10  2  0
  9 11  2  0
  9 12  1  0
 12 13  1  0
 13 14  1  0
 14 15  2  0
 15 16  1  0
 16 17  1  0
 17 18  2  0
 18 19  1  0
 19 20  2  0
 20 21  1  0
 21 22  1  1
 22 23  2  0
 22 24  1  0
 21 25  1  0
 25 26  1  0
 18 27  1  0
 27 28  1  0
 28 29  1  0
 29 13  2  0
 28 16  2  0
 26 19  1  0
M  END
>  <compound_id>  (52) 
SU13

>  <name>  (52) 
6'-(octane-1-sulfonamidyl) luciferin

>  <structural_class>  (52) 
6'-Sulfonamidyl luciferins

>  <subfamily>  (52) 
benzothiazole

>  <smiles>  (52) 
CCCCCCCCS(=O)(=O)Nc1ccc2nc(C3=N[C@@H](C(=O)O)CS3)sc2c1

>  <inchi>  (52) 
InChI=1S/C19H25N3O4S3/c1-2-3-4-5-6-7-10-29(25,26)22-13-8-9-14-16(11-13)28-18(20-14)17-21-15(12-27-17)19(23)24/h8-9,11,15,22H,2-7,10,12H2,1H3,(H,23,24)/t15-/m1/s1

>  <inchikey>  (52) 
RFXMHIDKBGOWBU-OAHLLOKOSA-N

>  <molecular_formula>  (52) 
C19H25N3O4S3

>  <iupac_name>  (52) 
(S)-2-(6-(octylsulfonamido)benzothiazol-2-yl)-4,5-dihydrothiazole-4-carboxylic acid

$$$$
SU14
     RDKit          2D

 26 28  0  0  0  0  0  0  0  0999 V2000
   -8.8289    3.5775    0.0000 C   0  0  0  0  0  0  0  0  0  0  0  0
   -7.4983    2.8850    0.0000 C   0  0  0  0  0  0  0  0  0  0  0  0
   -7.4326    1.3865    0.0000 C   0  0  0  0  0  0  0  0  0  0  0  0
   -6.1020    0.6941    0.0000 C   0  0  0  0  0  0  0  0  0  0  0  0
   -6.0363   -0.8045    0.0000 C   0  0  0  0  0  0  0  0  0  0  0  0
   -4.7057   -1.4969    0.0000 S   0  0  0  0  0  0  0  0  0  0  0  0
   -4.0133   -0.1663    0.0000 O   0  0  0  0  0  0  0  0  0  0  0  0
   -5.3981   -2.8275    0.0000 O   0  0  0  0  0  0  0  0  0  0  0  0
   -3.3751   -2.1893    0.0000 N   0  0  0  0  0  0  0  0  0  0  0  0
   -2.1101   -1.3832    0.0000 C   0  0  0  0  0  0  0  0  0  0  0  0
   -2.1758    0.1154    0.0000 C   0  0  0  0  0  0  0  0  0  0  0  0
   -0.9108    0.9215    0.0000 C   0  0  0  0  0  0  0  0  0  0  0  0
    0.4198    0.2291    0.0000 C   0  0  0  0  0  0  0  0  0  0  0  0
    1.8247    0.7546    0.0000 N   0  0  0  0  0  0  0  0  0  0  0  0
    2.7587   -0.4191    0.0000 C   0  0  0  0  0  0  0  0  0  0  0  0
    4.2573   -0.3535    0.0000 C   0  0  0  0  0  0  0  0  0  0  0  0
    5.0850    0.8975    0.0000 N   0  0  0  0  0  0  0  0  0  0  0  0
    6.5305    0.4969    0.0000 C   0  0  0  0  0  0  0  0  0  0  0  0
    7.7042    1.4308    0.0000 C   0  0  0  0  0  0  0  0  0  0  0  0
    7.4823    2.9143    0.0000 O   0  0  0  0  0  0  0  0  0  0  0  0
    9.1000    0.8813    0.0000 O   0  0  0  0  0  0  0  0  0  0  0  0
    6.5961   -1.0017    0.0000 C   0  0  0  0  0  0  0  0  0  0  0  0
    5.1912   -1.5272    0.0000 S   0  0  0  0  0  0  0  0  0  0  0  0
    1.9310   -1.6701    0.0000 S   0  0  0  0  0  0  0  0  0  0  0  0
    0.4855   -1.2695    0.0000 C   0  0  0  0  0  0  0  0  0  0  0  0
   -0.7795   -2.0756    0.0000 C   0  0  0  0  0  0  0  0  0  0  0  0
  1  2  1  0
  2  3  1  0
  3  4  1  0
  4  5  1  0
  5  6  1  0
  6  7  2  0
  6  8  2  0
  6  9  1  0
  9 10  1  0
 10 11  1  0
 11 12  2  0
 12 13  1  0
 13 14  1  0
 14 15  2  0
 15 16  1  0
 16 17  2  0
 17 18  1  0
 18 19  1  1
 19 20  2  0
 19 21  1  0
 18 22  1  0
 22 23  1  0
 15 24  1  0
 24 25  1  0
 25 26  1  0
 26 10  2  0
 25 13  2  0
 23 16  1  0
M  END
>  <compound_id>  (53) 
SU14

>  <name>  (53) 
6'-(pentane-1-sulfonamidyl) luciferin

>  <structural_class>  (53) 
6'-Sulfonamidyl luciferins

>  <subfamily>  (53) 
benzothiazole

>  <smiles>  (53) 
CCCCCS(=O)(=O)Nc1ccc2nc(C3=N[C@@H](C(=O)O)CS3)sc2c1

>  <inchi>  (53) 
InChI=1S/C16H19N3O4S3/c1-2-3-4-7-26(22,23)19-10-5-6-11-13(8-10)25-15(17-11)14-18-12(9-24-14)16(20)21/h5-6,8,12,19H,2-4,7,9H2,1H3,(H,20,21)/t12-/m1/s1

>  <inchikey>  (53) 
JVFMSGBERGVPSM-GFCCVEGCSA-N

>  <molecular_formula>  (53) 
C16H19N3O4S3

>  <iupac_name>  (53) 
(S)-2-(6-(pentylsulfonamido)benzothiazol-2-yl)-4,5-dihydrothiazole-4-carboxylic acid

$$$$
SU15
     RDKit          2D

 25 27  0  0  0  0  0  0  0  0999 V2000
   -8.7532    0.2583    0.0000 O   0  0  0  0  0  0  0  0  0  0  0  0
   -7.4132    0.9323    0.0000 C   0  0  0  0  0  0  0  0  0  0  0  0
   -7.3268    2.4298    0.0000 O   0  0  0  0  0  0  0  0  0  0  0  0
   -6.1594    0.1088    0.0000 C   0  0  0  0  0  0  0  0  0  0  0  0
   -6.0887   -1.3896    0.0000 C   0  0  0  0  0  0  0  0  0  0  0  0
   -4.6419   -1.7853    0.0000 S   0  0  0  0  0  0  0  0  0  0  0  0
   -3.8184   -0.5316    0.0000 C   0  0  0  0  0  0  0  0  0  0  0  0
   -2.3200   -0.4609    0.0000 C   0  0  0  0  0  0  0  0  0  0  0  0
   -1.3822   -1.6315    0.0000 N   0  0  0  0  0  0  0  0  0  0  0  0
    0.0210   -1.1013    0.0000 C   0  0  0  0  0  0  0  0  0  0  0  0
    1.3539   -1.7892    0.0000 C   0  0  0  0  0  0  0  0  0  0  0  0
    2.6162   -0.9789    0.0000 C   0  0  0  0  0  0  0  0  0  0  0  0
    2.5455    0.5195    0.0000 C   0  0  0  0  0  0  0  0  0  0  0  0
    3.8077    1.3299    0.0000 N   0  0  0  0  0  0  0  0  0  0  0  0
    5.1407    0.6419    0.0000 S   0  0  0  0  0  0  0  0  0  0  0  0
    4.4527   -0.6910    0.0000 O   0  0  0  0  0  0  0  0  0  0  0  0
    5.8286    1.9749    0.0000 O   0  0  0  0  0  0  0  0  0  0  0  0
    6.4736   -0.0460    0.0000 C   0  0  0  0  0  0  0  0  0  0  0  0
    5.7857   -1.3790    0.0000 F   0  0  0  0  0  0  0  0  0  0  0  0
    7.1616    1.2869    0.0000 F   0  0  0  0  0  0  0  0  0  0  0  0
    7.8066   -0.7340    0.0000 F   0  0  0  0  0  0  0  0  0  0  0  0
    1.2125    1.2074    0.0000 C   0  0  0  0  0  0  0  0  0  0  0  0
   -0.0497    0.3970    0.0000 C   0  0  0  0  0  0  0  0  0  0  0  0
   -1.4965    0.7928    0.0000 S   0  0  0  0  0  0  0  0  0  0  0  0
   -4.7563    0.6390    0.0000 N   0  0  0  0  0  0  0  0  0  0  0  0
  1  2  2  0
  2  3  1  0
  4  2  1  6
  4  5  1  0
  5  6  1  0
  6  7  1  0
  7  8  1  0
  8  9  2  0
  9 10  1  0
 10 11  1  0
 11 12  2  0
 12 13  1  0
 13 14  1  0
 14 15  1  0
 15 16  2  0
 15 17  2  0
 15 18  1  0
 18 19  1  0
 18 20  1  0
 18 21  1  0
 13 22  2  0
 22 23  1  0
 23 24  1  0
  7 25  2  0
 25  4  1  0
 24  8  1  0
 23 10  2  0
M  END
>  <compound_id>  (54) 
SU15

>  <name>  (54) 
6'-(trifluoromethanesulfonamidyl) luciferin

>  <structural_class>  (54) 
6'-Sulfonamidyl luciferins

>  <subfamily>  (54) 
benzothiazole

>  <smiles>  (54) 
O=C(O)[C@H]1CSC(c2nc3ccc(NS(=O)(=O)C(F)(F)F)cc3s2)=N1

>  <inchi>  (54) 
InChI=1S/C12H8F3N3O4S3/c13-12(14,15)25(21,22)18-5-1-2-6-8(3-5)24-10(16-6)9-17-7(4-23-9)11(19)20/h1-3,7,18H,4H2,(H,19,20)/t7-/m1/s1

>  <inchikey>  (54) 
LBYGWNYZRFCDOZ-SSDOTTSWSA-N

>  <molecular_formula>  (54) 
C12H8F3N3O4S3

>  <iupac_name>  (54) 
(S)-2-(6-(trifluoromethylsulfonamido)benzothiazol-2-yl)-4,5-dihydrothiazole-4-carboxylic acid

$$$$
SU16
     RDKit          2D

 22 24  0  0  0  0  0  0  0  0999 V2000
   -7.3463    0.9332    0.0000 C   0  0  0  0  0  0  0  0  0  0  0  0
   -6.1635    0.0107    0.0000 S   0  0  0  0  0  0  0  0  0  0  0  0
   -5.2410    1.1935    0.0000 O   0  0  0  0  0  0  0  0  0  0  0  0
   -7.0861   -1.1721    0.0000 O   0  0  0  0  0  0  0  0  0  0  0  0
   -4.9808   -0.9118    0.0000 N   0  0  0  0  0  0  0  0  0  0  0  0
   -3.5905   -0.3487    0.0000 C   0  0  0  0  0  0  0  0  0  0  0  0
   -3.3829    1.1368    0.0000 C   0  0  0  0  0  0  0  0  0  0  0  0
   -1.9926    1.6999    0.0000 C   0  0  0  0  0  0  0  0  0  0  0  0
   -0.8098    0.7774    0.0000 C   0  0  0  0  0  0  0  0  0  0  0  0
    0.6672    1.0391    0.0000 N   0  0  0  0  0  0  0  0  0  0  0  0
    1.3725   -0.2847    0.0000 C   0  0  0  0  0  0  0  0  0  0  0  0
    2.8580   -0.4923    0.0000 C   0  0  0  0  0  0  0  0  0  0  0  0
    3.8991    0.5876    0.0000 N   0  0  0  0  0  0  0  0  0  0  0  0
    5.2479   -0.0688    0.0000 C   0  0  0  0  0  0  0  0  0  0  0  0
    6.5717    0.6365    0.0000 C   0  0  0  0  0  0  0  0  0  0  0  0
    6.6228    2.1356    0.0000 O   0  0  0  0  0  0  0  0  0  0  0  0
    7.8444   -0.1573    0.0000 O   0  0  0  0  0  0  0  0  0  0  0  0
    5.0403   -1.5544    0.0000 C   0  0  0  0  0  0  0  0  0  0  0  0
    3.5633   -1.8161    0.0000 S   0  0  0  0  0  0  0  0  0  0  0  0
    0.3314   -1.3646    0.0000 S   0  0  0  0  0  0  0  0  0  0  0  0
   -1.0174   -0.7082    0.0000 C   0  0  0  0  0  0  0  0  0  0  0  0
   -2.4077   -1.2712    0.0000 C   0  0  0  0  0  0  0  0  0  0  0  0
  1  2  1  0
  2  3  2  0
  2  4  2  0
  2  5  1  0
  5  6  1  0
  6  7  1  0
  7  8  2  0
  8  9  1  0
  9 10  1  0
 10 11  2  0
 11 12  1  0
 12 13  2  0
 13 14  1  0
 14 15  1  1
 15 16  2  0
 15 17  1  0
 14 18  1  0
 18 19  1  0
 11 20  1  0
 20 21  1  0
 21 22  1  0
 22  6  2  0
 21  9  2  0
 19 12  1  0
M  END
>  <compound_id>  (55) 
SU16

>  <name>  (55) 
6'-methanesulfonamidyl luciferin

>  <structural_class>  (55) 
6'-Sulfonamidyl luciferins

>  <subfamily>  (55) 
benzothiazole

>  <smiles>  (55) 
CS(=O)(=O)Nc1ccc2nc(C3=N[C@@H](C(=O)O)CS3)sc2c1

>  <inchi>  (55) 
InChI=1S/C12H11N3O4S3/c1-22(18,19)15-6-2-3-7-9(4-6)21-11(13-7)10-14-8(5-20-10)12(16)17/h2-4,8,15H,5H2,1H3,(H,16,17)/t8-/m1/s1

>  <inchikey>  (55) 
KBNILPFFKWXRTC-MRVPVSSYSA-N

>  <molecular_formula>  (55) 
C12H11N3O4S3

>  <iupac_name>  (55) 
(S)-2-(6-(methylsulfonamido)benzothiazol-2-yl)-4,5-dihydrothiazole-4-carboxylic acid

$$$$
SP01
     RDKit          2D

 19 21  0  0  0  0  0  0  0  0999 V2000
   -7.1964    0.2017    0.0000 C   0  0  0  0  0  0  0  0  0  0  0  0
   -6.0319   -0.7437    0.0000 S   0  0  0  0  0  0  0  0  0  0  0  0
   -4.6309   -0.2080    0.0000 C   0  0  0  0  0  0  0  0  0  0  0  0
   -4.3943    1.2733    0.0000 C   0  0  0  0  0  0  0  0  0  0  0  0
   -2.9933    1.8090    0.0000 C   0  0  0  0  0  0  0  0  0  0  0  0
   -1.8287    0.8636    0.0000 C   0  0  0  0  0  0  0  0  0  0  0  0
   -0.3469    1.0963    0.0000 N   0  0  0  0  0  0  0  0  0  0  0  0
    0.3324   -0.2410    0.0000 C   0  0  0  0  0  0  0  0  0  0  0  0
    1.8136   -0.4776    0.0000 C   0  0  0  0  0  0  0  0  0  0  0  0
    2.8756    0.5817    0.0000 N   0  0  0  0  0  0  0  0  0  0  0  0
    4.2113   -0.1010    0.0000 C   0  0  0  0  0  0  0  0  0  0  0  0
    5.5486    0.5783    0.0000 C   0  0  0  0  0  0  0  0  0  0  0  0
    5.6290    2.0762    0.0000 O   0  0  0  0  0  0  0  0  0  0  0  0
    6.8056   -0.2402    0.0000 O   0  0  0  0  0  0  0  0  0  0  0  0
    3.9747   -1.5822    0.0000 C   0  0  0  0  0  0  0  0  0  0  0  0
    2.4929   -1.8150    0.0000 S   0  0  0  0  0  0  0  0  0  0  0  0
   -0.7296   -1.3004    0.0000 S   0  0  0  0  0  0  0  0  0  0  0  0
   -2.0653   -0.6177    0.0000 C   0  0  0  0  0  0  0  0  0  0  0  0
   -3.4663   -1.1534    0.0000 C   0  0  0  0  0  0  0  0  0  0  0  0
  1  2  1  0
  2  3  1  0
  3  4  1  0
  4  5  2  0
  5  6  1  0
  6  7  1  0
  7  8  2  0
  8  9  1  0
  9 10  2  0
 10 11  1  0
 11 12  1  1
 12 13  2  0
 12 14  1  0
 11 15  1  0
 15 16  1  0
  8 17  1  0
 17 18  1  0
 18 19  1  0
 19  3  2  0
 18  6  2  0
 16  9  1  0
M  END
>  <compound_id>  (56) 
SP01

>  <name>  (56) 
6'-(methylsulfanyl) luciferin

>  <structural_class>  (56) 
Other 6'-heteroatom-substituted luciferins

>  <subfamily>  (56) 
benzothiazole

>  <smiles>  (56) 
CSc1ccc2nc(C3=N[C@@H](C(=O)O)CS3)sc2c1

>  <inchi>  (56) 
InChI=1S/C12H10N2O2S3/c1-17-6-2-3-7-9(4-6)19-11(13-7)10-14-8(5-18-10)12(15)16/h2-4,8H,5H2,1H3,(H,15,16)/t8-/m1/s1

>  <inchikey>  (56) 
VQZWYPNOHNJPPZ-MRVPVSSYSA-N

>  <molecular_formula>  (56) 
C12H10N2O2S3

>  <iupac_name>  (56) 
(S)-2-(6-(methylthio)benzothiazol-2-yl)-4,5-dihydrothiazole-4-carboxylic acid

$$$$
SP02
     RDKit          2D

 20 22  0  0  0  0  0  0  0  0999 V2000
   -6.8649    0.5893    0.0000 C   0  0  0  0  0  0  0  0  0  0  0  0
   -5.7393   -0.4022    0.0000 S   0  0  0  0  0  0  0  0  0  0  0  0
   -6.0351   -1.8728    0.0000 O   0  0  0  0  0  0  0  0  0  0  0  0
   -4.3178    0.0768    0.0000 C   0  0  0  0  0  0  0  0  0  0  0  0
   -4.0220    1.5473    0.0000 C   0  0  0  0  0  0  0  0  0  0  0  0
   -2.6005    2.0264    0.0000 C   0  0  0  0  0  0  0  0  0  0  0  0
   -1.4749    1.0349    0.0000 C   0  0  0  0  0  0  0  0  0  0  0  0
    0.0150    1.2080    0.0000 N   0  0  0  0  0  0  0  0  0  0  0  0
    0.6401   -0.1556    0.0000 C   0  0  0  0  0  0  0  0  0  0  0  0
    2.1106   -0.4515    0.0000 C   0  0  0  0  0  0  0  0  0  0  0  0
    3.2143    0.5643    0.0000 N   0  0  0  0  0  0  0  0  0  0  0  0
    4.5214   -0.1715    0.0000 C   0  0  0  0  0  0  0  0  0  0  0  0
    5.8850    0.4535    0.0000 C   0  0  0  0  0  0  0  0  0  0  0  0
    6.0255    1.9469    0.0000 O   0  0  0  0  0  0  0  0  0  0  0  0
    7.1081   -0.4149    0.0000 O   0  0  0  0  0  0  0  0  0  0  0  0
    4.2256   -1.6420    0.0000 C   0  0  0  0  0  0  0  0  0  0  0  0
    2.7356   -1.8151    0.0000 S   0  0  0  0  0  0  0  0  0  0  0  0
   -0.4637   -1.1714    0.0000 S   0  0  0  0  0  0  0  0  0  0  0  0
   -1.7708   -0.4356    0.0000 C   0  0  0  0  0  0  0  0  0  0  0  0
   -3.1922   -0.9147    0.0000 C   0  0  0  0  0  0  0  0  0  0  0  0
  1  2  1  0
  2  3  2  0
  2  4  1  0
  4  5  1  0
  5  6  2  0
  6  7  1  0
  7  8  1  0
  8  9  2  0
  9 10  1  0
 10 11  2  0
 11 12  1  0
 12 13  1  1
 13 14  2  0
 13 15  1  0
 12 16  1  0
 16 17  1  0
  9 18  1  0
 18 19  1  0
 19 20  1  0
 20  4  2  0
 19  7  2  0
 17 10  1  0
M  END
>  <compound_id>  (57) 
SP02

>  <name>  (57) 
6'-(methylsulfinyl) luciferin

>  <structural_class>  (57) 
Other 6'-heteroatom-substituted luciferins

>  <subfamily>  (57) 
benzothiazole

>  <smiles>  (57) 
CS(=O)c1ccc2nc(C3=N[C@@H](C(=O)O)CS3)sc2c1

>  <inchi>  (57) 
InChI=1S/C12H10N2O3S3/c1-20(17)6-2-3-7-9(4-6)19-11(13-7)10-14-8(5-18-10)12(15)16/h2-4,8H,5H2,1H3,(H,15,16)/t8-,20?/m1/s1

>  <inchikey>  (57) 
LOMBGXWYYBKPCS-PMLQENADSA-N

>  <molecular_formula>  (57) 
C12H10N2O3S3

>  <iupac_name>  (57) 
(4S)-2-(6-(methylsulfinyl)benzothiazol-2-yl)-4,5-dihydrothiazole-4-carboxylic acid

>  <stereochemistry>  (57) 
unknown

$$$$
SP03
     RDKit          2D

 21 23  0  0  0  0  0  0  0  0999 V2000
   -6.8925   -0.8202    0.0000 C   0  0  0  0  0  0  0  0  0  0  0  0
   -5.4682   -0.3498    0.0000 S   0  0  0  0  0  0  0  0  0  0  0  0
   -4.9978   -1.7741    0.0000 O   0  0  0  0  0  0  0  0  0  0  0  0
   -5.9386    1.0745    0.0000 O   0  0  0  0  0  0  0  0  0  0  0  0
   -4.0439    0.1206    0.0000 C   0  0  0  0  0  0  0  0  0  0  0  0
   -3.7391    1.5893    0.0000 C   0  0  0  0  0  0  0  0  0  0  0  0
   -2.3147    2.0597    0.0000 C   0  0  0  0  0  0  0  0  0  0  0  0
   -1.1952    1.0614    0.0000 C   0  0  0  0  0  0  0  0  0  0  0  0
    0.2958    1.2253    0.0000 N   0  0  0  0  0  0  0  0  0  0  0  0
    0.9125   -0.1420    0.0000 C   0  0  0  0  0  0  0  0  0  0  0  0
    2.3812   -0.4468    0.0000 C   0  0  0  0  0  0  0  0  0  0  0  0
    3.4911    0.5622    0.0000 N   0  0  0  0  0  0  0  0  0  0  0  0
    4.7937   -0.1815    0.0000 C   0  0  0  0  0  0  0  0  0  0  0  0
    6.1611    0.4352    0.0000 C   0  0  0  0  0  0  0  0  0  0  0  0
    6.3107    1.9277    0.0000 O   0  0  0  0  0  0  0  0  0  0  0  0
    7.3788   -0.4407    0.0000 O   0  0  0  0  0  0  0  0  0  0  0  0
    4.4889   -1.6502    0.0000 C   0  0  0  0  0  0  0  0  0  0  0  0
    2.9979   -1.8142    0.0000 S   0  0  0  0  0  0  0  0  0  0  0  0
   -0.1974   -1.1511    0.0000 S   0  0  0  0  0  0  0  0  0  0  0  0
   -1.5000   -0.4074    0.0000 C   0  0  0  0  0  0  0  0  0  0  0  0
   -2.9243   -0.8777    0.0000 C   0  0  0  0  0  0  0  0  0  0  0  0
  1  2  1  0
  2  3  2  0
  2  4  2  0
  2  5  1  0
  5  6  1  0
  6  7  2  0
  7  8  1  0
  8  9  1  0
  9 10  2  0
 10 11  1  0
 11 12  2  0
 12 13  1  0
 13 14  1  1
 14 15  2  0
 14 16  1  0
 13 17  1  0
 17 18  1  0
 10 19  1  0
 19 20  1  0
 20 21  1  0
 21  5  2  0
 20  8  2  0
 18 11  1  0
M  END
>  <compound_id>  (58) 
SP03

>  <name>  (58) 
6'-(methylsulfonyl) luciferin

>  <structural_class>  (58) 
Other 6'-heteroatom-substituted luciferins

>  <subfamily>  (58) 
benzothiazole

>  <smiles>  (58) 
CS(=O)(=O)c1ccc2nc(C3=N[C@@H](C(=O)O)CS3)sc2c1

>  <inchi>  (58) 
InChI=1S/C12H10N2O4S3/c1-21(17,18)6-2-3-7-9(4-6)20-11(13-7)10-14-8(5-19-10)12(15)16/h2-4,8H,5H2,1H3,(H,15,16)/t8-/m1/s1

>  <inchikey>  (58) 
IEGPORHMPRZSLO-MRVPVSSYSA-N

>  <molecular_formula>  (58) 
C12H10N2O4S3

>  <iupac_name>  (58) 
(S)-2-(6-(methylsulfonyl)benzothiazol-2-yl)-4,5-dihydrothiazole-4-carboxylic acid

$$$$
SP04
     RDKit          2D

 24 27  0  0  0  0  0  0  0  0999 V2000
   -8.5983    0.1824    0.0000 O   0  0  0  0  0  0  0  0  0  0  0  0
   -7.2687    0.8768    0.0000 C   0  0  0  0  0  0  0  0  0  0  0  0
   -7.2053    2.3754    0.0000 O   0  0  0  0  0  0  0  0  0  0  0  0
   -6.0026    0.0725    0.0000 C   0  0  0  0  0  0  0  0  0  0  0  0
   -5.9090   -1.4246    0.0000 C   0  0  0  0  0  0  0  0  0  0  0  0
   -4.4563   -1.7982    0.0000 S   0  0  0  0  0  0  0  0  0  0  0  0
   -3.6520   -0.5320    0.0000 C   0  0  0  0  0  0  0  0  0  0  0  0
   -2.1549   -0.4385    0.0000 C   0  0  0  0  0  0  0  0  0  0  0  0
   -1.1993   -1.5946    0.0000 N   0  0  0  0  0  0  0  0  0  0  0  0
    0.1956   -1.0430    0.0000 C   0  0  0  0  0  0  0  0  0  0  0  0
    1.5389   -1.7105    0.0000 C   0  0  0  0  0  0  0  0  0  0  0  0
    2.7886   -0.8810    0.0000 C   0  0  0  0  0  0  0  0  0  0  0  0
    2.6951    0.6161    0.0000 C   0  0  0  0  0  0  0  0  0  0  0  0
    3.9448    1.4457    0.0000 S   0  0  0  0  0  0  0  0  0  0  0  0
    5.2881    0.7782    0.0000 C   0  0  0  0  0  0  0  0  0  0  0  0
    5.3816   -0.7189    0.0000 C   0  0  0  0  0  0  0  0  0  0  0  0
    6.7249   -1.3864    0.0000 C   0  0  0  0  0  0  0  0  0  0  0  0
    7.9747   -0.5568    0.0000 C   0  0  0  0  0  0  0  0  0  0  0  0
    7.8811    0.9402    0.0000 C   0  0  0  0  0  0  0  0  0  0  0  0
    6.5378    1.6077    0.0000 C   0  0  0  0  0  0  0  0  0  0  0  0
    1.3518    1.2836    0.0000 C   0  0  0  0  0  0  0  0  0  0  0  0
    0.1020    0.4541    0.0000 C   0  0  0  0  0  0  0  0  0  0  0  0
   -1.3507    0.8277    0.0000 S   0  0  0  0  0  0  0  0  0  0  0  0
   -4.6077    0.6241    0.0000 N   0  0  0  0  0  0  0  0  0  0  0  0
  1  2  2  0
  2  3  1  0
  4  2  1  6
  4  5  1  0
  5  6  1  0
  6  7  1  0
  7  8  1  0
  8  9  2  0
  9 10  1  0
 10 11  1  0
 11 12  2  0
 12 13  1  0
 13 14  1  0
 14 15  1  0
 15 16  2  0
 16 17  1  0
 17 18  2  0
 18 19  1  0
 19 20  2  0
 13 21  2  0
 21 22  1  0
 22 23  1  0
  7 24  2  0
 24  4  1  0
 23  8  1  0
 22 10  2  0
 20 15  1  0
M  END
>  <compound_id>  (59) 
SP04

>  <name>  (59) 
6'-(phenylsulfanyl) luciferin

>  <structural_class>  (59) 
Other 6'-heteroatom-substituted luciferins

>  <subfamily>  (59) 
benzothiazole

>  <smiles>  (59) 
O=C(O)[C@H]1CSC(c2nc3ccc(Sc4ccccc4)cc3s2)=N1

>  <inchi>  (59) 
InChI=1S/C17H12N2O2S3/c20-17(21)13-9-22-15(19-13)16-18-12-7-6-11(8-14(12)24-16)23-10-4-2-1-3-5-10/h1-8,13H,9H2,(H,20,21)/t13-/m1/s1

>  <inchikey>  (59) 
QHXHXJNLPPRNDM-CYBMUJFWSA-N

>  <molecular_formula>  (59) 
C17H12N2O2S3

>  <iupac_name>  (59) 
(S)-2-(6-(phenylthio)benzothiazol-2-yl)-4,5-dihydrothiazole-4-carboxylic acid

$$$$
SP05
     RDKit          2D

 18 20  0  0  0  0  0  0  0  0999 V2000
   -6.3914    0.0591    0.0000 O   0  0  0  0  0  0  0  0  0  0  0  0
   -5.0796    0.7866    0.0000 C   0  0  0  0  0  0  0  0  0  0  0  0
   -5.0538    2.2864    0.0000 O   0  0  0  0  0  0  0  0  0  0  0  0
   -3.7937    0.0143    0.0000 C   0  0  0  0  0  0  0  0  0  0  0  0
   -3.6626   -1.4800    0.0000 C   0  0  0  0  0  0  0  0  0  0  0  0
   -2.2010   -1.8171    0.0000 S   0  0  0  0  0  0  0  0  0  0  0  0
   -1.4287   -0.5311    0.0000 C   0  0  0  0  0  0  0  0  0  0  0  0
    0.0656   -0.4001    0.0000 C   0  0  0  0  0  0  0  0  0  0  0  0
    1.0499   -1.5319    0.0000 N   0  0  0  0  0  0  0  0  0  0  0  0
    2.4305   -0.9455    0.0000 C   0  0  0  0  0  0  0  0  0  0  0  0
    3.7901   -1.5791    0.0000 C   0  0  0  0  0  0  0  0  0  0  0  0
    5.0187   -0.7185    0.0000 C   0  0  0  0  0  0  0  0  0  0  0  0
    4.8876    0.7758    0.0000 C   0  0  0  0  0  0  0  0  0  0  0  0
    6.1161    1.6364    0.0000 Cl  0  0  0  0  0  0  0  0  0  0  0  0
    3.5280    1.4094    0.0000 C   0  0  0  0  0  0  0  0  0  0  0  0
    2.2995    0.5488    0.0000 C   0  0  0  0  0  0  0  0  0  0  0  0
    0.8378    0.8859    0.0000 S   0  0  0  0  0  0  0  0  0  0  0  0
   -2.4131    0.6007    0.0000 N   0  0  0  0  0  0  0  0  0  0  0  0
  1  2  2  0
  2  3  1  0
  2  4  1  0
  4  5  1  0
  5  6  1  0
  6  7  1  0
  7  8  1  0
  8  9  2  0
  9 10  1  0
 10 11  1  0
 11 12  2  0
 12 13  1  0
 13 14  1  0
 13 15  2  0
 15 16  1  0
 16 17  1  0
  7 18  2  0
 18  4  1  0
 17  8  1  0
 16 10  2  0
M  END
>  <compound_id>  (60) 
SP05

>  <name>  (60) 
6'-Chloroluciferin

>  <structural_class>  (60) 
Other 6'-heteroatom-substituted luciferins

>  <subfamily>  (60) 
benzothiazole

>  <smiles>  (60) 
O=C(O)C1CSC(c2nc3ccc(Cl)cc3s2)=N1

>  <inchi>  (60) 
InChI=1S/C11H7ClN2O2S2/c12-5-1-2-6-8(3-5)18-10(13-6)9-14-7(4-17-9)11(15)16/h1-3,7H,4H2,(H,15,16)

>  <inchikey>  (60) 
RXHBNUVQXKKVQM-UHFFFAOYSA-N

>  <molecular_formula>  (60) 
C11H7ClN2O2S2

>  <iupac_name>  (60) 
2-(6-chloro-1,3-benzothiazol-2-yl)-4,5-dihydro-1,3-thiazole-4-carboxylic acid

>  <stereochemistry>  (60) 
unknown

$$$$
SP06
     RDKit          2D

 17 19  0  0  0  0  0  0  0  0999 V2000
   -6.0313   -0.1672    0.0000 O   0  0  0  0  0  0  0  0  0  0  0  0
   -4.7603    0.6294    0.0000 C   0  0  0  0  0  0  0  0  0  0  0  0
   -4.8146    2.1284    0.0000 O   0  0  0  0  0  0  0  0  0  0  0  0
   -3.4349   -0.0731    0.0000 C   0  0  0  0  0  0  0  0  0  0  0  0
   -3.2242   -1.5582    0.0000 C   0  0  0  0  0  0  0  0  0  0  0  0
   -1.7466   -1.8167    0.0000 S   0  0  0  0  0  0  0  0  0  0  0  0
   -1.0442   -0.4914    0.0000 C   0  0  0  0  0  0  0  0  0  0  0  0
    0.4410   -0.2806    0.0000 C   0  0  0  0  0  0  0  0  0  0  0  0
    1.4844   -1.3583    0.0000 N   0  0  0  0  0  0  0  0  0  0  0  0
    2.8317   -0.6989    0.0000 C   0  0  0  0  0  0  0  0  0  0  0  0
    4.2232   -1.2590    0.0000 C   0  0  0  0  0  0  0  0  0  0  0  0
    5.4040   -0.3340    0.0000 C   0  0  0  0  0  0  0  0  0  0  0  0
    5.1933    1.1512    0.0000 C   0  0  0  0  0  0  0  0  0  0  0  0
    3.8018    1.7112    0.0000 C   0  0  0  0  0  0  0  0  0  0  0  0
    2.6210    0.7862    0.0000 C   0  0  0  0  0  0  0  0  0  0  0  0
    1.1434    1.0447    0.0000 S   0  0  0  0  0  0  0  0  0  0  0  0
   -2.0876    0.5863    0.0000 N   0  0  0  0  0  0  0  0  0  0  0  0
  1  2  2  0
  2  3  1  0
  4  2  1  6
  4  5  1  0
  5  6  1  0
  6  7  1  0
  7  8  1  0
  8  9  2  0
  9 10  1  0
 10 11  2  0
 11 12  1  0
 12 13  2  0
 13 14  1  0
 14 15  2  0
 15 16  1  0
  7 17  2  0
 17  4  1  0
 16  8  1  0
 15 10  1  0
M  END
>  <compound_id>  (61) 
SP06

>  <name>  (61) 
6'-deoxyLuc

>  <structural_class>  (61) 
Other 6'-heteroatom-substituted luciferins

>  <subfamily>  (61) 
benzothiazole

>  <smiles>  (61) 
O=C(O)[C@H]1CSC(c2nc3ccccc3s2)=N1

>  <inchi>  (61) 
InChI=1S/C11H8N2O2S2/c14-11(15)7-5-16-9(13-7)10-12-6-3-1-2-4-8(6)17-10/h1-4,7H,5H2,(H,14,15)/t7-/m1/s1

>  <inchikey>  (61) 
SVVRFTXLHTTYAG-SSDOTTSWSA-N

>  <molecular_formula>  (61) 
C11H8N2O2S2

>  <iupac_name>  (61) 
(4S)-2-(1,3-Benzothiazol-2-yl)-4,5-dihydro-1,3-thiazole-4-carboxylic acid

$$$$
SP07
     RDKit          2D

 20 22  0  0  0  0  0  0  0  0999 V2000
   -8.1697   -0.2565    0.0000 C   0  0  0  0  0  0  0  0  0  0  0  0
   -6.7647    0.2688    0.0000 C   0  0  0  0  0  0  0  0  0  0  0  0
   -5.6073   -0.6853    0.0000 O   0  0  0  0  0  0  0  0  0  0  0  0
   -4.2023   -0.1600    0.0000 C   0  0  0  0  0  0  0  0  0  0  0  0
   -3.9547    1.3194    0.0000 C   0  0  0  0  0  0  0  0  0  0  0  0
   -2.5497    1.8448    0.0000 C   0  0  0  0  0  0  0  0  0  0  0  0
   -1.3923    0.8907    0.0000 C   0  0  0  0  0  0  0  0  0  0  0  0
    0.0912    1.1124    0.0000 N   0  0  0  0  0  0  0  0  0  0  0  0
    0.7606   -0.2300    0.0000 C   0  0  0  0  0  0  0  0  0  0  0  0
    2.2400   -0.4776    0.0000 C   0  0  0  0  0  0  0  0  0  0  0  0
    3.3098    0.5738    0.0000 N   0  0  0  0  0  0  0  0  0  0  0  0
    4.6404   -0.1188    0.0000 C   0  0  0  0  0  0  0  0  0  0  0  0
    5.9828    0.5505    0.0000 C   0  0  0  0  0  0  0  0  0  0  0  0
    6.0743    2.0477    0.0000 O   0  0  0  0  0  0  0  0  0  0  0  0
    7.2336   -0.2774    0.0000 O   0  0  0  0  0  0  0  0  0  0  0  0
    4.3928   -1.5982    0.0000 C   0  0  0  0  0  0  0  0  0  0  0  0
    2.9093   -1.8200    0.0000 S   0  0  0  0  0  0  0  0  0  0  0  0
   -0.3093   -1.2814    0.0000 S   0  0  0  0  0  0  0  0  0  0  0  0
   -1.6398   -0.5888    0.0000 C   0  0  0  0  0  0  0  0  0  0  0  0
   -3.0448   -1.1141    0.0000 C   0  0  0  0  0  0  0  0  0  0  0  0
  1  2  1  0
  2  3  1  0
  3  4  1  0
  4  5  1  0
  5  6  2  0
  6  7  1  0
  7  8  1  0
  8  9  2  0
  9 10  1  0
 10 11  2  0
 11 12  1  0
 12 13  1  0
 13 14  2  0
 13 15  1  0
 12 16  1  0
 16 17  1  0
  9 18  1  0
 18 19  1  0
 19 20  1  0
 20  4  2  0
 19  7  2  0
 17 10  1  0
M  END
>  <compound_id>  (62) 
SP07

>  <name>  (62) 
6'-Ethoxyluciferin

>  <structural_class>  (62) 
Other 6'-heteroatom-substituted luciferins

>  <subfamily>  (62) 
benzothiazole

>  <smiles>  (62) 
CCOc1ccc2nc(C3=NC(C(=O)O)CS3)sc2c1

>  <inchi>  (62) 
InChI=1S/C13H12N2O3S2/c1-2-18-7-3-4-8-10(5-7)20-12(14-8)11-15-9(6-19-11)13(16)17/h3-5,9H,2,6H2,1H3,(H,16,17)

>  <inchikey>  (62) 
BUGLOFJKLPGHFK-UHFFFAOYSA-N

>  <molecular_formula>  (62) 
C13H12N2O3S2

>  <iupac_name>  (62) 
2-(6-ethoxy-1,3-benzothiazol-2-yl)-4,5-dihydro-1,3-thiazole-4-carboxylic acid

>  <stereochemistry>  (62) 
unknown

$$$$
SP08
     RDKit          2D

 19 21  0  0  0  0  0  0  0  0999 V2000
   -7.1964    0.2017    0.0000 C   0  0  0  0  0  0  0  0  0  0  0  0
   -6.0319   -0.7437    0.0000 O   0  0  0  0  0  0  0  0  0  0  0  0
   -4.6309   -0.2080    0.0000 C   0  0  0  0  0  0  0  0  0  0  0  0
   -4.3943    1.2733    0.0000 C   0  0  0  0  0  0  0  0  0  0  0  0
   -2.9933    1.8090    0.0000 C   0  0  0  0  0  0  0  0  0  0  0  0
   -1.8287    0.8636    0.0000 C   0  0  0  0  0  0  0  0  0  0  0  0
   -0.3469    1.0963    0.0000 N   0  0  0  0  0  0  0  0  0  0  0  0
    0.3324   -0.2410    0.0000 C   0  0  0  0  0  0  0  0  0  0  0  0
    1.8136   -0.4776    0.0000 C   0  0  0  0  0  0  0  0  0  0  0  0
    2.8756    0.5817    0.0000 N   0  0  0  0  0  0  0  0  0  0  0  0
    4.2113   -0.1010    0.0000 C   0  0  0  0  0  0  0  0  0  0  0  0
    5.5486    0.5783    0.0000 C   0  0  0  0  0  0  0  0  0  0  0  0
    5.6290    2.0762    0.0000 O   0  0  0  0  0  0  0  0  0  0  0  0
    6.8056   -0.2402    0.0000 O   0  0  0  0  0  0  0  0  0  0  0  0
    3.9747   -1.5822    0.0000 C   0  0  0  0  0  0  0  0  0  0  0  0
    2.4929   -1.8150    0.0000 S   0  0  0  0  0  0  0  0  0  0  0  0
   -0.7296   -1.3004    0.0000 S   0  0  0  0  0  0  0  0  0  0  0  0
   -2.0653   -0.6177    0.0000 C   0  0  0  0  0  0  0  0  0  0  0  0
   -3.4663   -1.1534    0.0000 C   0  0  0  0  0  0  0  0  0  0  0  0
  1  2  1  0
  2  3  1  0
  3  4  1  0
  4  5  2  0
  5  6  1  0
  6  7  1  0
  7  8  2  0
  8  9  1  0
  9 10  2  0
 10 11  1  0
 11 12  1  0
 12 13  2  0
 12 14  1  0
 11 15  2  0
 15 16  1  0
  8 17  1  0
 17 18  1  0
 18 19  1  0
 19  3  2  0
 18  6  2  0
 16  9  1  0
M  END
>  <compound_id>  (63) 
SP08

>  <name>  (63) 
6'-Methoxydehydroluciferin

>  <structural_class>  (63) 
Other 6'-heteroatom-substituted luciferins

>  <subfamily>  (63) 
benzothiazole

>  <smiles>  (63) 
COc1ccc2nc(-c3nc(C(=O)O)cs3)sc2c1

>  <inchi>  (63) 
InChI=1S/C12H8N2O3S2/c1-17-6-2-3-7-9(4-6)19-11(13-7)10-14-8(5-18-10)12(15)16/h2-5H,1H3,(H,15,16)

>  <inchikey>  (63) 
RSHSNCAMMAJTCM-UHFFFAOYSA-N

>  <molecular_formula>  (63) 
C12H8N2O3S2

>  <iupac_name>  (63) 
2-(6-methoxy-1,3-benzothiazol-2-yl)-1,3-thiazole-4-carboxylic acid

$$$$
SP09
     RDKit          2D

 19 21  0  0  0  0  0  0  0  0999 V2000
   -7.1964    0.2017    0.0000 C   0  0  0  0  0  0  0  0  0  0  0  0
   -6.0319   -0.7437    0.0000 O   0  0  0  0  0  0  0  0  0  0  0  0
   -4.6309   -0.2080    0.0000 C   0  0  0  0  0  0  0  0  0  0  0  0
   -4.3943    1.2733    0.0000 C   0  0  0  0  0  0  0  0  0  0  0  0
   -2.9933    1.8090    0.0000 C   0  0  0  0  0  0  0  0  0  0  0  0
   -1.8287    0.8636    0.0000 C   0  0  0  0  0  0  0  0  0  0  0  0
   -0.3469    1.0963    0.0000 N   0  0  0  0  0  0  0  0  0  0  0  0
    0.3324   -0.2410    0.0000 C   0  0  0  0  0  0  0  0  0  0  0  0
    1.8136   -0.4776    0.0000 C   0  0  0  0  0  0  0  0  0  0  0  0
    2.8756    0.5817    0.0000 N   0  0  0  0  0  0  0  0  0  0  0  0
    4.2113   -0.1010    0.0000 C   0  0  0  0  0  0  0  0  0  0  0  0
    5.5486    0.5783    0.0000 C   0  0  0  0  0  0  0  0  0  0  0  0
    5.6290    2.0762    0.0000 O   0  0  0  0  0  0  0  0  0  0  0  0
    6.8056   -0.2402    0.0000 O   0  0  0  0  0  0  0  0  0  0  0  0
    3.9747   -1.5822    0.0000 C   0  0  0  0  0  0  0  0  0  0  0  0
    2.4929   -1.8150    0.0000 S   0  0  0  0  0  0  0  0  0  0  0  0
   -0.7296   -1.3004    0.0000 S   0  0  0  0  0  0  0  0  0  0  0  0
   -2.0653   -0.6177    0.0000 C   0  0  0  0  0  0  0  0  0  0  0  0
   -3.4663   -1.1534    0.0000 C   0  0  0  0  0  0  0  0  0  0  0  0
  1  2  1  0
  2  3  1  0
  3  4  1  0
  4  5  2  0
  5  6  1  0
  6  7  1  0
  7  8  2  0
  8  9  1  0
  9 10  2  0
 10 11  1  0
 11 12  1  1
 12 13  2  0
 12 14  1  0
 11 15  1  0
 15 16  1  0
  8 17  1  0
 17 18  1  0
 18 19  1  0
 19  3  2  0
 18  6  2  0
 16  9  1  0
M  END
>  <compound_id>  (64) 
SP09

>  <name>  (64) 
6'-methoxyLuc

>  <structural_class>  (64) 
Other 6'-heteroatom-substituted luciferins

>  <subfamily>  (64) 
benzothiazole

>  <smiles>  (64) 
COc1ccc2nc(C3=N[C@@H](C(=O)O)CS3)sc2c1

>  <inchi>  (64) 
InChI=1S/C12H10N2O3S2/c1-17-6-2-3-7-9(4-6)19-11(13-7)10-14-8(5-18-10)12(15)16/h2-4,8H,5H2,1H3,(H,15,16)/t8-/m1/s1

>  <inchikey>  (64) 
ZTQKCGHSTKIWFW-MRVPVSSYSA-N

>  <molecular_formula>  (64) 
C12H10N2O3S2

>  <iupac_name>  (64) 
(4S)-2-(6-Methoxy-1,3-benzothiazol-2-yl)-4,5-dihydro-1,3-thiazole-4-carboxylic acid

$$$$
SP10
     RDKit          2D

 18 20  0  0  0  0  0  0  0  0999 V2000
   -6.4362   -0.6918    0.0000 C   0  0  0  0  0  0  0  0  0  0  0  0
   -5.0318   -0.1649    0.0000 C   0  0  0  0  0  0  0  0  0  0  0  0
   -4.7859    1.3148    0.0000 C   0  0  0  0  0  0  0  0  0  0  0  0
   -3.3815    1.8417    0.0000 C   0  0  0  0  0  0  0  0  0  0  0  0
   -2.2230    0.8889    0.0000 C   0  0  0  0  0  0  0  0  0  0  0  0
   -0.7397    1.1122    0.0000 N   0  0  0  0  0  0  0  0  0  0  0  0
   -0.0689   -0.2294    0.0000 C   0  0  0  0  0  0  0  0  0  0  0  0
    1.4108   -0.4753    0.0000 C   0  0  0  0  0  0  0  0  0  0  0  0
    2.4795    0.5772    0.0000 N   0  0  0  0  0  0  0  0  0  0  0  0
    3.8108   -0.1139    0.0000 C   0  0  0  0  0  0  0  0  0  0  0  0
    5.1525    0.5569    0.0000 C   0  0  0  0  0  0  0  0  0  0  0  0
    5.2424    2.0542    0.0000 O   0  0  0  0  0  0  0  0  0  0  0  0
    6.4042   -0.2696    0.0000 O   0  0  0  0  0  0  0  0  0  0  0  0
    3.5649   -1.5936    0.0000 C   0  0  0  0  0  0  0  0  0  0  0  0
    2.0816   -1.8170    0.0000 S   0  0  0  0  0  0  0  0  0  0  0  0
   -1.1376   -1.2820    0.0000 S   0  0  0  0  0  0  0  0  0  0  0  0
   -2.4689   -0.5908    0.0000 C   0  0  0  0  0  0  0  0  0  0  0  0
   -3.8733   -1.1177    0.0000 C   0  0  0  0  0  0  0  0  0  0  0  0
  1  2  1  0
  2  3  1  0
  3  4  2  0
  4  5  1  0
  5  6  1  0
  6  7  2  0
  7  8  1  0
  8  9  2  0
  9 10  1  0
 10 11  1  0
 11 12  2  0
 11 13  1  0
 10 14  1  0
 14 15  1  0
  7 16  1  0
 16 17  1  0
 17 18  1  0
 18  2  2  0
 17  5  2  0
 15  8  1  0
M  END
>  <compound_id>  (65) 
SP10

>  <name>  (65) 
6'-Methylluciferin

>  <structural_class>  (65) 
Other 6'-heteroatom-substituted luciferins

>  <subfamily>  (65) 
benzothiazole

>  <smiles>  (65) 
Cc1ccc2nc(C3=NC(C(=O)O)CS3)sc2c1

>  <inchi>  (65) 
InChI=1S/C12H10N2O2S2/c1-6-2-3-7-9(4-6)18-11(13-7)10-14-8(5-17-10)12(15)16/h2-4,8H,5H2,1H3,(H,15,16)

>  <inchikey>  (65) 
PQWRIGZZFUERBN-UHFFFAOYSA-N

>  <molecular_formula>  (65) 
C12H10N2O2S2

>  <iupac_name>  (65) 
2-(6-methyl-1,3-benzothiazol-2-yl)-4,5-dihydro-1,3-thiazole-4-carboxylic acid

>  <stereochemistry>  (65) 
unknown

$$$$
SP11
     RDKit          2D

 18 20  0  0  0  0  0  0  0  0999 V2000
   -6.3914    0.0591    0.0000 O   0  0  0  0  0  0  0  0  0  0  0  0
   -5.0796    0.7866    0.0000 C   0  0  0  0  0  0  0  0  0  0  0  0
   -5.0538    2.2864    0.0000 O   0  0  0  0  0  0  0  0  0  0  0  0
   -3.7937    0.0143    0.0000 C   0  0  0  0  0  0  0  0  0  0  0  0
   -3.6626   -1.4800    0.0000 C   0  0  0  0  0  0  0  0  0  0  0  0
   -2.2010   -1.8171    0.0000 S   0  0  0  0  0  0  0  0  0  0  0  0
   -1.4287   -0.5311    0.0000 C   0  0  0  0  0  0  0  0  0  0  0  0
    0.0656   -0.4001    0.0000 C   0  0  0  0  0  0  0  0  0  0  0  0
    1.0499   -1.5319    0.0000 N   0  0  0  0  0  0  0  0  0  0  0  0
    2.4305   -0.9455    0.0000 C   0  0  0  0  0  0  0  0  0  0  0  0
    3.7901   -1.5791    0.0000 C   0  0  0  0  0  0  0  0  0  0  0  0
    5.0187   -0.7185    0.0000 C   0  0  0  0  0  0  0  0  0  0  0  0
    4.8876    0.7758    0.0000 C   0  0  0  0  0  0  0  0  0  0  0  0
    6.1161    1.6364    0.0000 S   0  0  0  0  0  0  0  0  0  0  0  0
    3.5280    1.4094    0.0000 C   0  0  0  0  0  0  0  0  0  0  0  0
    2.2995    0.5488    0.0000 C   0  0  0  0  0  0  0  0  0  0  0  0
    0.8378    0.8859    0.0000 S   0  0  0  0  0  0  0  0  0  0  0  0
   -2.4131    0.6007    0.0000 N   0  0  0  0  0  0  0  0  0  0  0  0
  1  2  2  0
  2  3  1  0
  4  2  1  6
  4  5  1  0
  5  6  1  0
  6  7  1  0
  7  8  1  0
  8  9  2  0
  9 10  1  0
 10 11  1  0
 11 12  2  0
 12 13  1  0
 13 14  1  0
 13 15  2  0
 15 16  1  0
 16 17  1  0
  7 18  2  0
 18  4  1  0
 17  8  1  0
 16 10  2  0
M  END
>  <compound_id>  (66) 
SP11

>  <name>  (66) 
D-Thioluciferin

>  <structural_class>  (66) 
Other 6'-heteroatom-substituted luciferins

>  <subfamily>  (66) 
benzothiazole

>  <smiles>  (66) 
O=C(O)[C@H]1CSC(c2nc3ccc(S)cc3s2)=N1

>  <inchi>  (66) 
InChI=1S/C11H8N2O2S3/c14-11(15)7-4-17-9(13-7)10-12-6-2-1-5(16)3-8(6)18-10/h1-3,7,16H,4H2,(H,14,15)/t7-/m1/s1

>  <inchikey>  (66) 
NAZLHJNBNGKBQP-SSDOTTSWSA-N

>  <molecular_formula>  (66) 
C11H8N2O2S3

>  <iupac_name>  (66) 
(4R)-2-(6-sulfanyl-1,3-benzothiazol-2-yl)-4,5-dihydro-1,3-thiazole-4-carboxylic acid

$$$$
RS01
     RDKit          2D

 18 20  0  0  0  0  0  0  0  0999 V2000
   -6.2675   -0.3566    0.0000 O   0  0  0  0  0  0  0  0  0  0  0  0
   -5.0417    0.5080    0.0000 C   0  0  0  0  0  0  0  0  0  0  0  0
   -5.1776    2.0019    0.0000 O   0  0  0  0  0  0  0  0  0  0  0  0
   -3.6801   -0.1212    0.0000 C   0  0  0  0  0  0  0  0  0  0  0  0
   -3.3888   -1.5926    0.0000 C   0  0  0  0  0  0  0  0  0  0  0  0
   -1.8994   -1.7703    0.0000 S   0  0  0  0  0  0  0  0  0  0  0  0
   -1.2701   -0.4087    0.0000 C   0  0  0  0  0  0  0  0  0  0  0  0
    0.2013   -0.1174    0.0000 C   0  0  0  0  0  0  0  0  0  0  0  0
    1.3019   -1.1366    0.0000 N   0  0  0  0  0  0  0  0  0  0  0  0
    2.6113   -0.4049    0.0000 C   0  0  0  0  0  0  0  0  0  0  0  0
    4.0312   -0.8884    0.0000 C   0  0  0  0  0  0  0  0  0  0  0  0
    4.3225   -2.3598    0.0000 O   0  0  0  0  0  0  0  0  0  0  0  0
    5.1599    0.0996    0.0000 C   0  0  0  0  0  0  0  0  0  0  0  0
    4.8686    1.5711    0.0000 C   0  0  0  0  0  0  0  0  0  0  0  0
    3.4487    2.0545    0.0000 C   0  0  0  0  0  0  0  0  0  0  0  0
    2.3200    1.0666    0.0000 C   0  0  0  0  0  0  0  0  0  0  0  0
    0.8306    1.2442    0.0000 S   0  0  0  0  0  0  0  0  0  0  0  0
   -2.3707    0.6105    0.0000 N   0  0  0  0  0  0  0  0  0  0  0  0
  1  2  2  0
  2  3  1  0
  2  4  1  0
  4  5  1  0
  5  6  1  0
  6  7  1  0
  7  8  1  0
  8  9  2  0
  9 10  1  0
 10 11  2  0
 11 12  1  0
 11 13  1  0
 13 14  2  0
 14 15  1  0
 15 16  2  0
 16 17  1  0
  7 18  2  0
 18  4  1  0
 17  8  1  0
 16 10  1  0
M  END
>  <compound_id>  (67) 
RS01

>  <name>  (67) 
"4-Hydroxyluciferin" positional isomer (White & Woerther 1966 compound 2)

>  <structural_class>  (67) 
Ring-substituted benzothiazole luciferins, 4'-, 5'-, 7'-

>  <subfamily>  (67) 
benzothiazole

>  <smiles>  (67) 
O=C(O)C1CSC(c2nc3c(O)cccc3s2)=N1

>  <inchi>  (67) 
InChI=1S/C11H8N2O3S2/c14-6-2-1-3-7-8(6)13-10(18-7)9-12-5(4-17-9)11(15)16/h1-3,5,14H,4H2,(H,15,16)

>  <inchikey>  (67) 
KZABRFDXAOGZKO-UHFFFAOYSA-N

>  <molecular_formula>  (67) 
C11H8N2O3S2

>  <iupac_name>  (67) 
(4RS)-2-(4-hydroxy-1,3-benzothiazol-2-yl)-4,5-dihydro-1,3-thiazole-4-carboxylic acid (racemic)

>  <stereochemistry>  (67) 
racemate

$$$$
RS02
     RDKit          2D

 18 20  0  0  0  0  0  0  0  0999 V2000
   -6.4042   -0.2696    0.0000 O   0  0  0  0  0  0  0  0  0  0  0  0
   -5.1525    0.5569    0.0000 C   0  0  0  0  0  0  0  0  0  0  0  0
   -5.2424    2.0542    0.0000 O   0  0  0  0  0  0  0  0  0  0  0  0
   -3.8108   -0.1139    0.0000 C   0  0  0  0  0  0  0  0  0  0  0  0
   -3.5649   -1.5936    0.0000 C   0  0  0  0  0  0  0  0  0  0  0  0
   -2.0816   -1.8170    0.0000 S   0  0  0  0  0  0  0  0  0  0  0  0
   -1.4108   -0.4753    0.0000 C   0  0  0  0  0  0  0  0  0  0  0  0
    0.0689   -0.2294    0.0000 C   0  0  0  0  0  0  0  0  0  0  0  0
    1.1376   -1.2820    0.0000 N   0  0  0  0  0  0  0  0  0  0  0  0
    2.4689   -0.5908    0.0000 C   0  0  0  0  0  0  0  0  0  0  0  0
    3.8733   -1.1177    0.0000 C   0  0  0  0  0  0  0  0  0  0  0  0
    5.0318   -0.1649    0.0000 C   0  0  0  0  0  0  0  0  0  0  0  0
    6.4362   -0.6918    0.0000 O   0  0  0  0  0  0  0  0  0  0  0  0
    4.7859    1.3148    0.0000 C   0  0  0  0  0  0  0  0  0  0  0  0
    3.3815    1.8417    0.0000 C   0  0  0  0  0  0  0  0  0  0  0  0
    2.2230    0.8889    0.0000 C   0  0  0  0  0  0  0  0  0  0  0  0
    0.7397    1.1122    0.0000 S   0  0  0  0  0  0  0  0  0  0  0  0
   -2.4795    0.5772    0.0000 N   0  0  0  0  0  0  0  0  0  0  0  0
  1  2  2  0
  2  3  1  0
  2  4  1  0
  4  5  1  0
  5  6  1  0
  6  7  1  0
  7  8  1  0
  8  9  2  0
  9 10  1  0
 10 11  1  0
 11 12  2  0
 12 13  1  0
 12 14  1  0
 14 15  2  0
 15 16  1  0
 16 17  1  0
  7 18  2  0
 18  4  1  0
 17  8  1  0
 16 10  2  0
M  END
>  <compound_id>  (68) 
RS02

>  <name>  (68) 
"5-Hydroxyluciferin" (White & Woerther 1966 compound 3)

>  <structural_class>  (68) 
Ring-substituted benzothiazole luciferins, 4'-, 5'-, 7'-

>  <subfamily>  (68) 
benzothiazole

>  <smiles>  (68) 
O=C(O)C1CSC(c2nc3cc(O)ccc3s2)=N1

>  <inchi>  (68) 
InChI=1S/C11H8N2O3S2/c14-5-1-2-8-6(3-5)12-10(18-8)9-13-7(4-17-9)11(15)16/h1-3,7,14H,4H2,(H,15,16)

>  <inchikey>  (68) 
IGXWBGJHJZYPQS-UHFFFAOYSA-N

>  <molecular_formula>  (68) 
C11H8N2O3S2

>  <iupac_name>  (68) 
(4RS)-2-(5-hydroxy-1,3-benzothiazol-2-yl)-4,5-dihydro-1,3-thiazole-4-carboxylic acid (racemic)

>  <stereochemistry>  (68) 
racemate

$$$$
RS03
     RDKit          2D

 18 20  0  0  0  0  0  0  0  0999 V2000
   -6.2403   -0.0099    0.0000 O   0  0  0  0  0  0  0  0  0  0  0  0
   -4.9284    0.7173    0.0000 C   0  0  0  0  0  0  0  0  0  0  0  0
   -4.9022    2.2171    0.0000 O   0  0  0  0  0  0  0  0  0  0  0  0
   -3.6426   -0.0553    0.0000 C   0  0  0  0  0  0  0  0  0  0  0  0
   -3.5119   -1.5496    0.0000 C   0  0  0  0  0  0  0  0  0  0  0  0
   -2.0503   -1.8870    0.0000 S   0  0  0  0  0  0  0  0  0  0  0  0
   -1.2778   -0.6012    0.0000 C   0  0  0  0  0  0  0  0  0  0  0  0
    0.2165   -0.4705    0.0000 C   0  0  0  0  0  0  0  0  0  0  0  0
    1.2006   -1.6026    0.0000 N   0  0  0  0  0  0  0  0  0  0  0  0
    2.5814   -1.0165    0.0000 C   0  0  0  0  0  0  0  0  0  0  0  0
    3.9408   -1.6504    0.0000 C   0  0  0  0  0  0  0  0  0  0  0  0
    5.1695   -0.7901    0.0000 C   0  0  0  0  0  0  0  0  0  0  0  0
    5.0388    0.7042    0.0000 C   0  0  0  0  0  0  0  0  0  0  0  0
    3.6794    1.3382    0.0000 C   0  0  0  0  0  0  0  0  0  0  0  0
    3.5486    2.8324    0.0000 O   0  0  0  0  0  0  0  0  0  0  0  0
    2.4506    0.4778    0.0000 C   0  0  0  0  0  0  0  0  0  0  0  0
    0.9891    0.8152    0.0000 S   0  0  0  0  0  0  0  0  0  0  0  0
   -2.2619    0.5308    0.0000 N   0  0  0  0  0  0  0  0  0  0  0  0
  1  2  2  0
  2  3  1  0
  2  4  1  0
  4  5  1  0
  5  6  1  0
  6  7  1  0
  7  8  1  0
  8  9  2  0
  9 10  1  0
 10 11  2  0
 11 12  1  0
 12 13  2  0
 13 14  1  0
 14 15  1  0
 14 16  2  0
 16 17  1  0
  7 18  2  0
 18  4  1  0
 17  8  1  0
 16 10  1  0
M  END
>  <compound_id>  (69) 
RS03

>  <name>  (69) 
"7-Hydroxyluciferin" (White & Woerther 1966 compound 4)

>  <structural_class>  (69) 
Ring-substituted benzothiazole luciferins, 4'-, 5'-, 7'-

>  <subfamily>  (69) 
benzothiazole

>  <smiles>  (69) 
O=C(O)C1CSC(c2nc3cccc(O)c3s2)=N1

>  <inchi>  (69) 
InChI=1S/C11H8N2O3S2/c14-7-3-1-2-5-8(7)18-10(12-5)9-13-6(4-17-9)11(15)16/h1-3,6,14H,4H2,(H,15,16)

>  <inchikey>  (69) 
HEYMYHOTRPYEPY-UHFFFAOYSA-N

>  <molecular_formula>  (69) 
C11H8N2O3S2

>  <iupac_name>  (69) 
(4RS)-2-(7-hydroxy-1,3-benzothiazol-2-yl)-4,5-dihydro-1,3-thiazole-4-carboxylic acid (racemic)

>  <stereochemistry>  (69) 
racemate

$$$$
RS04
     RDKit          2D

 19 21  0  0  0  0  0  0  0  0999 V2000
    6.5819    0.1754    0.0000 O   0  0  0  0  0  0  0  0  0  0  0  0
    5.2974   -0.5993    0.0000 C   0  0  0  0  0  0  0  0  0  0  0  0
    5.3260   -2.0990    0.0000 O   0  0  0  0  0  0  0  0  0  0  0  0
    3.9843    0.1259    0.0000 C   0  0  0  0  0  0  0  0  0  0  0  0
    3.7991    1.6144    0.0000 C   0  0  0  0  0  0  0  0  0  0  0  0
    2.3262    1.8982    0.0000 S   0  0  0  0  0  0  0  0  0  0  0  0
    1.6011    0.5851    0.0000 C   0  0  0  0  0  0  0  0  0  0  0  0
    0.1126    0.3999    0.0000 C   0  0  0  0  0  0  0  0  0  0  0  0
   -0.6125   -0.9131    0.0000 N   0  0  0  0  0  0  0  0  0  0  0  0
   -2.0854   -0.6293    0.0000 C   0  0  0  0  0  0  0  0  0  0  0  0
   -3.2819   -1.5339    0.0000 C   0  0  0  0  0  0  0  0  0  0  0  0
   -3.0967   -3.0225    0.0000 Br  0  0  0  0  0  0  0  0  0  0  0  0
   -4.6636   -0.9501    0.0000 C   0  0  0  0  0  0  0  0  0  0  0  0
   -4.8488    0.5385    0.0000 C   0  0  0  0  0  0  0  0  0  0  0  0
   -6.2305    1.1223    0.0000 O   0  0  0  0  0  0  0  0  0  0  0  0
   -3.6523    1.4431    0.0000 C   0  0  0  0  0  0  0  0  0  0  0  0
   -2.2706    0.8592    0.0000 C   0  0  0  0  0  0  0  0  0  0  0  0
   -0.9122    1.4953    0.0000 S   0  0  0  0  0  0  0  0  0  0  0  0
    2.6259   -0.5103    0.0000 N   0  0  0  0  0  0  0  0  0  0  0  0
  1  2  2  0
  2  3  1  0
  4  2  1  6
  4  5  1  0
  5  6  1  0
  6  7  1  0
  7  8  1  0
  8  9  2  0
  9 10  1  0
 10 11  2  0
 11 12  1  0
 11 13  1  0
 13 14  2  0
 14 15  1  0
 14 16  1  0
 16 17  2  0
 17 18  1  0
  7 19  2  0
 19  4  1  0
 18  8  1  0
 17 10  1  0
M  END
>  <compound_id>  (70) 
RS04

>  <name>  (70) 
4'-BrLuc

>  <structural_class>  (70) 
Ring-substituted benzothiazole luciferins, 4'-, 5'-, 7'-

>  <subfamily>  (70) 
benzothiazole

>  <smiles>  (70) 
O=C(O)[C@H]1CSC(c2nc3c(Br)cc(O)cc3s2)=N1

>  <inchi>  (70) 
InChI=1S/C11H7BrN2O3S2/c12-5-1-4(15)2-7-8(5)14-10(19-7)9-13-6(3-18-9)11(16)17/h1-2,6,15H,3H2,(H,16,17)/t6-/m1/s1

>  <inchikey>  (70) 
NZHIIDQCZSGMLF-ZCFIWIBFSA-N

>  <molecular_formula>  (70) 
C11H7BrN2O3S2

>  <iupac_name>  (70) 
(S)-2-(4-Bromo-6-hydroxybenzothiazol-2-yl)-4,5-dihydrothiazole-4-carboxylic acid

$$$$
RS05
     RDKit          2D

 22 24  0  0  0  0  0  0  0  0999 V2000
    5.3124    3.4774    0.0000 C   0  0  0  0  0  0  0  0  0  0  0  0
    4.8667    2.0452    0.0000 N   0  0  0  0  0  0  0  0  0  0  0  0
    5.8842    0.9431    0.0000 C   0  0  0  0  0  0  0  0  0  0  0  0
    3.4034    1.7151    0.0000 C   0  0  0  0  0  0  0  0  0  0  0  0
    2.9577    0.2828    0.0000 C   0  0  0  0  0  0  0  0  0  0  0  0
    3.9752   -0.8193    0.0000 C   0  0  0  0  0  0  0  0  0  0  0  0
    3.5295   -2.2515    0.0000 C   0  0  0  0  0  0  0  0  0  0  0  0
    4.5470   -3.3537    0.0000 O   0  0  0  0  0  0  0  0  0  0  0  0
    2.0663   -2.5817    0.0000 C   0  0  0  0  0  0  0  0  0  0  0  0
    1.0488   -1.4795    0.0000 C   0  0  0  0  0  0  0  0  0  0  0  0
   -0.4511   -1.4982    0.0000 S   0  0  0  0  0  0  0  0  0  0  0  0
   -0.9324   -0.0775    0.0000 C   0  0  0  0  0  0  0  0  0  0  0  0
   -2.3646    0.3682    0.0000 C   0  0  0  0  0  0  0  0  0  0  0  0
   -3.5671   -0.5285    0.0000 N   0  0  0  0  0  0  0  0  0  0  0  0
   -4.7915    0.3380    0.0000 C   0  0  0  0  0  0  0  0  0  0  0  0
   -6.2122   -0.1433    0.0000 C   0  0  0  0  0  0  0  0  0  0  0  0
   -6.5058   -1.6143    0.0000 O   0  0  0  0  0  0  0  0  0  0  0  0
   -7.3393    0.8465    0.0000 O   0  0  0  0  0  0  0  0  0  0  0  0
   -4.3458    1.7702    0.0000 C   0  0  0  0  0  0  0  0  0  0  0  0
   -2.8459    1.7889    0.0000 S   0  0  0  0  0  0  0  0  0  0  0  0
    0.2701    0.8192    0.0000 N   0  0  0  0  0  0  0  0  0  0  0  0
    1.4945   -0.0473    0.0000 C   0  0  0  0  0  0  0  0  0  0  0  0
  1  2  1  0
  2  3  1  0
  2  4  1  0
  4  5  1  0
  5  6  1  0
  6  7  2  0
  7  8  1  0
  7  9  1  0
  9 10  2  0
 10 11  1  0
 11 12  1  0
 12 13  1  0
 13 14  2  0
 14 15  1  0
 15 16  1  1
 16 17  2  0
 16 18  1  0
 15 19  1  0
 19 20  1  0
 12 21  2  0
 21 22  1  0
 22  5  2  0
 22 10  1  0
 20 13  1  0
M  END
>  <compound_id>  (71) 
RS05

>  <name>  (71) 
4'-DMAMeLuc

>  <structural_class>  (71) 
Ring-substituted benzothiazole luciferins, 4'-, 5'-, 7'-

>  <subfamily>  (71) 
benzothiazole

>  <smiles>  (71) 
CN(C)Cc1cc(O)cc2sc(C3=N[C@@H](C(=O)O)CS3)nc12

>  <inchi>  (71) 
InChI=1S/C14H15N3O3S2/c1-17(2)5-7-3-8(18)4-10-11(7)16-13(22-10)12-15-9(6-21-12)14(19)20/h3-4,9,18H,5-6H2,1-2H3,(H,19,20)/t9-/m1/s1

>  <inchikey>  (71) 
KATKEVZSXZONFL-SECBINFHSA-N

>  <molecular_formula>  (71) 
C14H15N3O3S2

>  <iupac_name>  (71) 
(S)-2-(4-((dimethylamino)methyl)-6-hydroxybenzothiazol-2-yl)-4,5-dihydrothiazole-4-carboxylate potassium salt (free acid: (4S)-2-{4--6-hydroxy-1,3-benzothiazol-2-yl}-4,5-dihydro-1,3-thiazole-4-carboxylic acid)

$$$$
RS06
     RDKit          2D

 19 21  0  0  0  0  0  0  0  0999 V2000
    3.8487    2.7321    0.0000 C   0  0  0  0  0  0  0  0  0  0  0  0
    3.6469    1.2458    0.0000 C   0  0  0  0  0  0  0  0  0  0  0  0
    4.8333    0.3278    0.0000 C   0  0  0  0  0  0  0  0  0  0  0  0
    4.6315   -1.1585    0.0000 C   0  0  0  0  0  0  0  0  0  0  0  0
    5.8178   -2.0765    0.0000 O   0  0  0  0  0  0  0  0  0  0  0  0
    3.2433   -1.7269    0.0000 C   0  0  0  0  0  0  0  0  0  0  0  0
    2.0570   -0.8090    0.0000 C   0  0  0  0  0  0  0  0  0  0  0  0
    0.5810   -1.0764    0.0000 S   0  0  0  0  0  0  0  0  0  0  0  0
   -0.1294    0.2447    0.0000 C   0  0  0  0  0  0  0  0  0  0  0  0
   -1.6157    0.4465    0.0000 C   0  0  0  0  0  0  0  0  0  0  0  0
   -2.6526   -0.6374    0.0000 N   0  0  0  0  0  0  0  0  0  0  0  0
   -4.0039    0.0139    0.0000 C   0  0  0  0  0  0  0  0  0  0  0  0
   -5.3250   -0.6965    0.0000 C   0  0  0  0  0  0  0  0  0  0  0  0
   -5.3703   -2.1958    0.0000 O   0  0  0  0  0  0  0  0  0  0  0  0
   -6.6008    0.0924    0.0000 O   0  0  0  0  0  0  0  0  0  0  0  0
   -3.8021    1.5002    0.0000 C   0  0  0  0  0  0  0  0  0  0  0  0
   -2.3261    1.7676    0.0000 S   0  0  0  0  0  0  0  0  0  0  0  0
    0.9076    1.3286    0.0000 N   0  0  0  0  0  0  0  0  0  0  0  0
    2.2588    0.6774    0.0000 C   0  0  0  0  0  0  0  0  0  0  0  0
  1  2  1  0
  2  3  1  0
  3  4  2  0
  4  5  1  0
  4  6  1  0
  6  7  2  0
  7  8  1  0
  8  9  1  0
  9 10  1  0
 10 11  2  0
 11 12  1  0
 12 13  1  1
 13 14  2  0
 13 15  1  0
 12 16  1  0
 16 17  1  0
  9 18  2  0
 18 19  1  0
 19  2  2  0
 19  7  1  0
 17 10  1  0
M  END
>  <compound_id>  (72) 
RS06

>  <name>  (72) 
4'-MeLuc

>  <structural_class>  (72) 
Ring-substituted benzothiazole luciferins, 4'-, 5'-, 7'-

>  <subfamily>  (72) 
benzothiazole

>  <smiles>  (72) 
Cc1cc(O)cc2sc(C3=N[C@@H](C(=O)O)CS3)nc12

>  <inchi>  (72) 
InChI=1S/C12H10N2O3S2/c1-5-2-6(15)3-8-9(5)14-11(19-8)10-13-7(4-18-10)12(16)17/h2-3,7,15H,4H2,1H3,(H,16,17)/t7-/m1/s1

>  <inchikey>  (72) 
NIYJAWAPTYCFGV-SSDOTTSWSA-N

>  <molecular_formula>  (72) 
C12H10N2O3S2

>  <iupac_name>  (72) 
4'-Methyl luciferin = (4S)-2-(6-hydroxy-4-methyl-1,3-benzothiazol-2-yl)-4,5-dihydro-1,3-thiazole-4-carboxylic acid

$$$$
RS07
     RDKit          2D

 20 22  0  0  0  0  0  0  0  0999 V2000
    6.8064   -0.0719    0.0000 O   0  0  0  0  0  0  0  0  0  0  0  0
    5.4741   -0.7612    0.0000 C   0  0  0  0  0  0  0  0  0  0  0  0
    5.4049   -2.2596    0.0000 O   0  0  0  0  0  0  0  0  0  0  0  0
    4.2110    0.0480    0.0000 C   0  0  0  0  0  0  0  0  0  0  0  0
    4.1232    1.5454    0.0000 C   0  0  0  0  0  0  0  0  0  0  0  0
    2.6720    1.9246    0.0000 S   0  0  0  0  0  0  0  0  0  0  0  0
    1.8628    0.6615    0.0000 C   0  0  0  0  0  0  0  0  0  0  0  0
    0.3654    0.5737    0.0000 C   0  0  0  0  0  0  0  0  0  0  0  0
   -0.4437   -0.6894    0.0000 N   0  0  0  0  0  0  0  0  0  0  0  0
   -1.8950   -0.3101    0.0000 C   0  0  0  0  0  0  0  0  0  0  0  0
   -3.1479   -1.1349    0.0000 C   0  0  0  0  0  0  0  0  0  0  0  0
   -3.0601   -2.6323    0.0000 C   0  0  0  0  0  0  0  0  0  0  0  0
   -4.3130   -3.4571    0.0000 O   0  0  0  0  0  0  0  0  0  0  0  0
   -4.4886   -0.4623    0.0000 C   0  0  0  0  0  0  0  0  0  0  0  0
   -4.5764    1.0352    0.0000 C   0  0  0  0  0  0  0  0  0  0  0  0
   -5.9171    1.7078    0.0000 O   0  0  0  0  0  0  0  0  0  0  0  0
   -3.3235    1.8599    0.0000 C   0  0  0  0  0  0  0  0  0  0  0  0
   -1.9828    1.1873    0.0000 C   0  0  0  0  0  0  0  0  0  0  0  0
   -0.5858    1.7335    0.0000 S   0  0  0  0  0  0  0  0  0  0  0  0
    2.8140   -0.4983    0.0000 N   0  0  0  0  0  0  0  0  0  0  0  0
  1  2  2  0
  2  3  1  0
  4  2  1  6
  4  5  1  0
  5  6  1  0
  6  7  1  0
  7  8  1  0
  8  9  2  0
  9 10  1  0
 10 11  2  0
 11 12  1  0
 12 13  1  0
 11 14  1  0
 14 15  2  0
 15 16  1  0
 15 17  1  0
 17 18  2  0
 18 19  1  0
  7 20  2  0
 20  4  1  0
 19  8  1  0
 18 10  1  0
M  END
>  <compound_id>  (73) 
RS07

>  <name>  (73) 
4'-MeOHLuc

>  <structural_class>  (73) 
Ring-substituted benzothiazole luciferins, 4'-, 5'-, 7'-

>  <subfamily>  (73) 
benzothiazole

>  <smiles>  (73) 
O=C(O)[C@H]1CSC(c2nc3c(CO)cc(O)cc3s2)=N1

>  <inchi>  (73) 
InChI=1S/C12H10N2O4S2/c15-3-5-1-6(16)2-8-9(5)14-11(20-8)10-13-7(4-19-10)12(17)18/h1-2,7,15-16H,3-4H2,(H,17,18)/t7-/m1/s1

>  <inchikey>  (73) 
OIYKUSJPBCBHTF-SSDOTTSWSA-N

>  <molecular_formula>  (73) 
C12H10N2O4S2

>  <iupac_name>  (73) 
(S)-2-(6-hydroxy-4-(hydroxymethyl)benzothiazol-2-yl)-4,5-dihydrothiazole-4-carboxylic acid

$$$$
RS08
     RDKit          2D

 23 25  0  0  0  0  0  0  0  0999 V2000
    7.3936   -0.7830    0.0000 O   0  0  0  0  0  0  0  0  0  0  0  0
    5.9680   -1.2493    0.0000 C   0  0  0  0  0  0  0  0  0  0  0  0
    5.6590   -2.7171    0.0000 O   0  0  0  0  0  0  0  0  0  0  0  0
    4.8513   -0.2478    0.0000 C   0  0  0  0  0  0  0  0  0  0  0  0
    5.0052    1.2443    0.0000 C   0  0  0  0  0  0  0  0  0  0  0  0
    3.6336    1.8517    0.0000 S   0  0  0  0  0  0  0  0  0  0  0  0
    2.6321    0.7350    0.0000 C   0  0  0  0  0  0  0  0  0  0  0  0
    1.1400    0.8889    0.0000 C   0  0  0  0  0  0  0  0  0  0  0  0
    0.1385   -0.2278    0.0000 N   0  0  0  0  0  0  0  0  0  0  0  0
   -1.2330    0.3796    0.0000 C   0  0  0  0  0  0  0  0  0  0  0  0
   -2.6021   -0.2331    0.0000 C   0  0  0  0  0  0  0  0  0  0  0  0
   -2.7560   -1.7252    0.0000 C   0  0  0  0  0  0  0  0  0  0  0  0
   -4.1251   -2.3380    0.0000 S   0  0  0  0  0  0  0  0  0  0  0  0
   -3.5123   -3.7071    0.0000 O   0  0  0  0  0  0  0  0  0  0  0  0
   -4.7379   -0.9689    0.0000 O   0  0  0  0  0  0  0  0  0  0  0  0
   -5.4942   -2.9508    0.0000 O   0  0  0  0  0  0  0  0  0  0  0  0
   -3.8173    0.6462    0.0000 C   0  0  0  0  0  0  0  0  0  0  0  0
   -3.6635    2.1383    0.0000 C   0  0  0  0  0  0  0  0  0  0  0  0
   -4.8787    3.0176    0.0000 O   0  0  0  0  0  0  0  0  0  0  0  0
   -2.2943    2.7510    0.0000 C   0  0  0  0  0  0  0  0  0  0  0  0
   -1.0791    1.8717    0.0000 C   0  0  0  0  0  0  0  0  0  0  0  0
    0.3875    2.1865    0.0000 S   0  0  0  0  0  0  0  0  0  0  0  0
    3.3847   -0.5625    0.0000 N   0  0  0  0  0  0  0  0  0  0  0  0
  1  2  2  0
  2  3  1  0
  4  2  1  6
  4  5  1  0
  5  6  1  0
  6  7  1  0
  7  8  1  0
  8  9  2  0
  9 10  1  0
 10 11  2  0
 11 12  1  0
 12 13  1  0
 13 14  2  0
 13 15  2  0
 13 16  1  0
 11 17  1  0
 17 18  2  0
 18 19  1  0
 18 20  1  0
 20 21  2  0
 21 22  1  0
  7 23  2  0
 23  4  1  0
 22  8  1  0
 21 10  1  0
M  END
>  <compound_id>  (74) 
RS08

>  <name>  (74) 
4'-SO3HLuc

>  <structural_class>  (74) 
Ring-substituted benzothiazole luciferins, 4'-, 5'-, 7'-

>  <subfamily>  (74) 
benzothiazole

>  <smiles>  (74) 
O=C(O)[C@H]1CSC(c2nc3c(CS(=O)(=O)O)cc(O)cc3s2)=N1

>  <inchi>  (74) 
InChI=1S/C12H10N2O6S3/c15-6-1-5(4-23(18,19)20)9-8(2-6)22-11(14-9)10-13-7(3-21-10)12(16)17/h1-2,7,15H,3-4H2,(H,16,17)(H,18,19,20)/t7-/m1/s1

>  <inchikey>  (74) 
NBOAYRJAUFPAHR-SSDOTTSWSA-N

>  <molecular_formula>  (74) 
C12H10N2O6S3

>  <iupac_name>  (74) 
(S)-2-(6-hydroxy-4-(sulfonatomethyl)benzothiazol-2-yl)-4,5-dihydrothiazole-4-carboxylate potassium salt

$$$$
RS09
     RDKit          2D

 20 22  0  0  0  0  0  0  0  0999 V2000
    6.7257   -2.2481    0.0000 C   0  0  0  0  0  0  0  0  0  0  0  0
    5.4730   -1.4230    0.0000 C   0  0  0  0  0  0  0  0  0  0  0  0
    4.2203   -0.5979    0.0000 C   0  0  0  0  0  0  0  0  0  0  0  0
    2.8794   -1.2702    0.0000 C   0  0  0  0  0  0  0  0  0  0  0  0
    1.6267   -0.4451    0.0000 C   0  0  0  0  0  0  0  0  0  0  0  0
    0.1753   -0.8239    0.0000 N   0  0  0  0  0  0  0  0  0  0  0  0
   -0.6334    0.4394    0.0000 C   0  0  0  0  0  0  0  0  0  0  0  0
   -2.1308    0.5276    0.0000 C   0  0  0  0  0  0  0  0  0  0  0  0
   -3.0824   -0.6320    0.0000 N   0  0  0  0  0  0  0  0  0  0  0  0
   -4.4792   -0.0854    0.0000 C   0  0  0  0  0  0  0  0  0  0  0  0
   -5.7425   -0.8941    0.0000 C   0  0  0  0  0  0  0  0  0  0  0  0
   -5.6737   -2.3926    0.0000 O   0  0  0  0  0  0  0  0  0  0  0  0
   -7.0746   -0.2045    0.0000 O   0  0  0  0  0  0  0  0  0  0  0  0
   -4.3910    1.4120    0.0000 C   0  0  0  0  0  0  0  0  0  0  0  0
   -2.9396    1.7909    0.0000 S   0  0  0  0  0  0  0  0  0  0  0  0
    0.3181    1.5989    0.0000 S   0  0  0  0  0  0  0  0  0  0  0  0
    1.7149    1.0523    0.0000 C   0  0  0  0  0  0  0  0  0  0  0  0
    3.0558    1.7246    0.0000 C   0  0  0  0  0  0  0  0  0  0  0  0
    4.3085    0.8995    0.0000 C   0  0  0  0  0  0  0  0  0  0  0  0
    5.6494    1.5718    0.0000 O   0  0  0  0  0  0  0  0  0  0  0  0
  1  2  3  0
  2  3  1  0
  3  4  2  0
  4  5  1  0
  5  6  1  0
  6  7  2  0
  7  8  1  0
  8  9  2  0
  9 10  1  0
 10 11  1  1
 11 12  2  0
 11 13  1  0
 10 14  1  0
 14 15  1  0
  7 16  1  0
 16 17  1  0
 17 18  1  0
 18 19  2  0
 19 20  1  0
 19  3  1  0
 17  5  2  0
 15  8  1  0
M  END
>  <compound_id>  (75) 
RS09

>  <name>  (75) 
5'-Alkynyl luciferin

>  <structural_class>  (75) 
Ring-substituted benzothiazole luciferins, 4'-, 5'-, 7'-

>  <subfamily>  (75) 
benzothiazole

>  <smiles>  (75) 
C#Cc1cc2nc(C3=N[C@@H](C(=O)O)CS3)sc2cc1O

>  <inchi>  (75) 
InChI=1S/C13H8N2O3S2/c1-2-6-3-7-10(4-9(6)16)20-12(14-7)11-15-8(5-19-11)13(17)18/h1,3-4,8,16H,5H2,(H,17,18)/t8-/m1/s1

>  <inchikey>  (75) 
YLJXJCWXDWSYBY-MRVPVSSYSA-N

>  <molecular_formula>  (75) 
C13H8N2O3S2

>  <iupac_name>  (75) 
(S)-2-(5-Ethynyl-6-hydroxybenzothiazol-2-yl)-4,5-dihydrothiazole-4-carboxylic acid

$$$$
RS10
     RDKit          2D

 19 21  0  0  0  0  0  0  0  0999 V2000
    6.7279    0.0723    0.0000 O   0  0  0  0  0  0  0  0  0  0  0  0
    5.4387   -0.6944    0.0000 C   0  0  0  0  0  0  0  0  0  0  0  0
    5.4580   -2.1942    0.0000 O   0  0  0  0  0  0  0  0  0  0  0  0
    4.1301    0.0389    0.0000 C   0  0  0  0  0  0  0  0  0  0  0  0
    3.9541    1.5285    0.0000 C   0  0  0  0  0  0  0  0  0  0  0  0
    2.4830    1.8215    0.0000 S   0  0  0  0  0  0  0  0  0  0  0  0
    1.7498    0.5129    0.0000 C   0  0  0  0  0  0  0  0  0  0  0  0
    0.2601    0.3369    0.0000 C   0  0  0  0  0  0  0  0  0  0  0  0
   -0.4731   -0.9717    0.0000 N   0  0  0  0  0  0  0  0  0  0  0  0
   -1.9442   -0.6788    0.0000 C   0  0  0  0  0  0  0  0  0  0  0  0
   -3.1463   -1.5760    0.0000 C   0  0  0  0  0  0  0  0  0  0  0  0
   -4.5243   -0.9836    0.0000 C   0  0  0  0  0  0  0  0  0  0  0  0
   -5.7264   -1.8808    0.0000 Br  0  0  0  0  0  0  0  0  0  0  0  0
   -4.7003    0.5061    0.0000 C   0  0  0  0  0  0  0  0  0  0  0  0
   -6.0784    1.0985    0.0000 O   0  0  0  0  0  0  0  0  0  0  0  0
   -3.4983    1.4033    0.0000 C   0  0  0  0  0  0  0  0  0  0  0  0
   -2.1202    0.8109    0.0000 C   0  0  0  0  0  0  0  0  0  0  0  0
   -0.7578    1.4386    0.0000 S   0  0  0  0  0  0  0  0  0  0  0  0
    2.7677   -0.5888    0.0000 N   0  0  0  0  0  0  0  0  0  0  0  0
  1  2  2  0
  2  3  1  0
  4  2  1  6
  4  5  1  0
  5  6  1  0
  6  7  1  0
  7  8  1  0
  8  9  2  0
  9 10  1  0
 10 11  1  0
 11 12  2  0
 12 13  1  0
 12 14  1  0
 14 15  1  0
 14 16  2  0
 16 17  1  0
 17 18  1  0
  7 19  2  0
 19  4  1  0
 18  8  1  0
 17 10  2  0
M  END
>  <compound_id>  (76) 
RS10

>  <name>  (76) 
5'-BrLuc

>  <structural_class>  (76) 
Ring-substituted benzothiazole luciferins, 4'-, 5'-, 7'-

>  <subfamily>  (76) 
benzothiazole

>  <smiles>  (76) 
O=C(O)[C@H]1CSC(c2nc3cc(Br)c(O)cc3s2)=N1

>  <inchi>  (76) 
InChI=1S/C11H7BrN2O3S2/c12-4-1-5-8(2-7(4)15)19-10(13-5)9-14-6(3-18-9)11(16)17/h1-2,6,15H,3H2,(H,16,17)/t6-/m1/s1

>  <inchikey>  (76) 
XIWSEKMZEBDPFR-ZCFIWIBFSA-N

>  <molecular_formula>  (76) 
C11H7BrN2O3S2

>  <iupac_name>  (76) 
(S)-2-(5-Bromo-6-hydroxybenzothiazol-2-yl)-4,5-dihydrothiazole-4-carboxylic acid

$$$$
RS12
     RDKit          2D

 19 21  0  0  0  0  0  0  0  0999 V2000
   -4.6417   -2.1297    0.0000 C   0  0  0  0  0  0  0  0  0  0  0  0
   -3.4671   -1.1969    0.0000 C   0  0  0  0  0  0  0  0  0  0  0  0
   -2.0219   -1.5988    0.0000 S   0  0  0  0  0  0  0  0  0  0  0  0
   -1.1931   -0.3486    0.0000 C   0  0  0  0  0  0  0  0  0  0  0  0
    0.3055   -0.2843    0.0000 C   0  0  0  0  0  0  0  0  0  0  0  0
    1.2384   -1.4589    0.0000 N   0  0  0  0  0  0  0  0  0  0  0  0
    2.6438   -0.9346    0.0000 C   0  0  0  0  0  0  0  0  0  0  0  0
    3.9738   -1.6282    0.0000 C   0  0  0  0  0  0  0  0  0  0  0  0
    5.2395   -0.8232    0.0000 C   0  0  0  0  0  0  0  0  0  0  0  0
    5.1752    0.6754    0.0000 C   0  0  0  0  0  0  0  0  0  0  0  0
    6.4409    1.4804    0.0000 O   0  0  0  0  0  0  0  0  0  0  0  0
    3.8452    1.3690    0.0000 C   0  0  0  0  0  0  0  0  0  0  0  0
    2.5795    0.5640    0.0000 C   0  0  0  0  0  0  0  0  0  0  0  0
    1.1344    0.9659    0.0000 S   0  0  0  0  0  0  0  0  0  0  0  0
   -2.1260    0.8260    0.0000 N   0  0  0  0  0  0  0  0  0  0  0  0
   -3.5314    0.3018    0.0000 C   0  0  0  0  0  0  0  0  0  0  0  0
   -4.7816    1.1306    0.0000 C   0  0  0  0  0  0  0  0  0  0  0  0
   -6.1245    0.4623    0.0000 O   0  0  0  0  0  0  0  0  0  0  0  0
   -4.6889    2.6277    0.0000 O   0  0  0  0  0  0  0  0  0  0  0  0
  1  2  1  0
  2  3  1  0
  3  4  1  0
  4  5  1  0
  5  6  2  0
  6  7  1  0
  7  8  1  0
  8  9  2  0
  9 10  1  0
 10 11  1  0
 10 12  2  0
 12 13  1  0
 13 14  1  0
  4 15  2  0
 15 16  1  0
 16 17  1  0
 17 18  2  0
 17 19  1  0
 16  2  1  0
 14  5  1  0
 13  7  2  0
M  END
>  <compound_id>  (77) 
RS12

>  <name>  (77) 
5-Methylluciferin

>  <structural_class>  (77) 
Ring-substituted benzothiazole luciferins, 4'-, 5'-, 7'-

>  <subfamily>  (77) 
benzothiazole

>  <smiles>  (77) 
CC1SC(c2nc3ccc(O)cc3s2)=NC1C(=O)O

>  <inchi>  (77) 
InChI=1S/C12H10N2O3S2/c1-5-9(12(16)17)14-11(18-5)10-13-7-3-2-6(15)4-8(7)19-10/h2-5,9,15H,1H3,(H,16,17)

>  <inchikey>  (77) 
XWVFWZHCHLEHGD-UHFFFAOYSA-N

>  <molecular_formula>  (77) 
C12H10N2O3S2

>  <iupac_name>  (77) 
2-(6-hydroxy-1,3-benzothiazol-2-yl)-5-methyl-4,5-dihydro-1,3-thiazole-4-carboxylic acid

>  <stereochemistry>  (77) 
racemate

$$$$
RS13
     RDKit          2D

 21 23  0  0  0  0  0  0  0  0999 V2000
    5.6347    3.2433    0.0000 C   0  0  0  0  0  0  0  0  0  0  0  0
    5.1526    1.8229    0.0000 C   0  0  0  0  0  0  0  0  0  0  0  0
    3.6814    1.5302    0.0000 C   0  0  0  0  0  0  0  0  0  0  0  0
    3.1993    0.1098    0.0000 C   0  0  0  0  0  0  0  0  0  0  0  0
    4.1884   -1.0180    0.0000 C   0  0  0  0  0  0  0  0  0  0  0  0
    5.6595   -0.7253    0.0000 O   0  0  0  0  0  0  0  0  0  0  0  0
    3.7062   -2.4384    0.0000 C   0  0  0  0  0  0  0  0  0  0  0  0
    2.2351   -2.7311    0.0000 C   0  0  0  0  0  0  0  0  0  0  0  0
    1.2460   -1.6033    0.0000 C   0  0  0  0  0  0  0  0  0  0  0  0
   -0.2539   -1.5837    0.0000 N   0  0  0  0  0  0  0  0  0  0  0  0
   -0.6987   -0.1512    0.0000 C   0  0  0  0  0  0  0  0  0  0  0  0
   -2.1191    0.3309    0.0000 C   0  0  0  0  0  0  0  0  0  0  0  0
   -3.3441   -0.5349    0.0000 N   0  0  0  0  0  0  0  0  0  0  0  0
   -4.5460    0.3626    0.0000 C   0  0  0  0  0  0  0  0  0  0  0  0
   -5.9785   -0.0823    0.0000 C   0  0  0  0  0  0  0  0  0  0  0  0
   -6.3095   -1.5453    0.0000 O   0  0  0  0  0  0  0  0  0  0  0  0
   -7.0800    0.9359    0.0000 O   0  0  0  0  0  0  0  0  0  0  0  0
   -4.0639    1.7830    0.0000 C   0  0  0  0  0  0  0  0  0  0  0  0
   -2.5640    1.7634    0.0000 S   0  0  0  0  0  0  0  0  0  0  0  0
    0.5262    0.7145    0.0000 S   0  0  0  0  0  0  0  0  0  0  0  0
    1.7281   -0.1829    0.0000 C   0  0  0  0  0  0  0  0  0  0  0  0
  1  2  2  0
  2  3  1  0
  3  4  1  0
  4  5  2  0
  5  6  1  0
  5  7  1  0
  7  8  2  0
  8  9  1  0
  9 10  1  0
 10 11  2  0
 11 12  1  0
 12 13  2  0
 13 14  1  0
 14 15  1  1
 15 16  2  0
 15 17  1  0
 14 18  1  0
 18 19  1  0
 11 20  1  0
 20 21  1  0
 21  4  1  0
 21  9  2  0
 19 12  1  0
M  END
>  <compound_id>  (78) 
RS13

>  <name>  (78) 
7'-Allyl-D-luciferin

>  <structural_class>  (78) 
Ring-substituted benzothiazole luciferins, 4'-, 5'-, 7'-

>  <subfamily>  (78) 
benzothiazole

>  <smiles>  (78) 
C=CCc1c(O)ccc2nc(C3=N[C@@H](C(=O)O)CS3)sc12

>  <inchi>  (78) 
InChI=1S/C14H12N2O3S2/c1-2-3-7-10(17)5-4-8-11(7)21-13(15-8)12-16-9(6-20-12)14(18)19/h2,4-5,9,17H,1,3,6H2,(H,18,19)/t9-/m1/s1

>  <inchikey>  (78) 
ORMDJQNYUDMFIT-SECBINFHSA-N

>  <molecular_formula>  (78) 
C14H12N2O3S2

>  <iupac_name>  (78) 
(4S)-2-(7-allyl-6-hydroxy-1,3-benzothiazol-2-yl)-4,5-dihydro-1,3-thiazole-4-carboxylic acid

$$$$
RS14
     RDKit          2D

 19 21  0  0  0  0  0  0  0  0999 V2000
    6.6103    0.3991    0.0000 O   0  0  0  0  0  0  0  0  0  0  0  0
    5.3928   -0.4771    0.0000 C   0  0  0  0  0  0  0  0  0  0  0  0
    5.5429   -1.9696    0.0000 O   0  0  0  0  0  0  0  0  0  0  0  0
    4.0253    0.1392    0.0000 C   0  0  0  0  0  0  0  0  0  0  0  0
    3.7200    1.6078    0.0000 C   0  0  0  0  0  0  0  0  0  0  0  0
    2.2290    1.7713    0.0000 S   0  0  0  0  0  0  0  0  0  0  0  0
    1.6127    0.4038    0.0000 C   0  0  0  0  0  0  0  0  0  0  0  0
    0.1441    0.0986    0.0000 C   0  0  0  0  0  0  0  0  0  0  0  0
   -0.4722   -1.2690    0.0000 N   0  0  0  0  0  0  0  0  0  0  0  0
   -1.9633   -1.1054    0.0000 C   0  0  0  0  0  0  0  0  0  0  0  0
   -3.0825   -2.1041    0.0000 C   0  0  0  0  0  0  0  0  0  0  0  0
   -4.5070   -1.6341    0.0000 C   0  0  0  0  0  0  0  0  0  0  0  0
   -4.8122   -0.1655    0.0000 C   0  0  0  0  0  0  0  0  0  0  0  0
   -6.2367    0.3045    0.0000 O   0  0  0  0  0  0  0  0  0  0  0  0
   -3.6930    0.8332    0.0000 C   0  0  0  0  0  0  0  0  0  0  0  0
   -3.9982    2.3018    0.0000 Br  0  0  0  0  0  0  0  0  0  0  0  0
   -2.2685    0.3632    0.0000 C   0  0  0  0  0  0  0  0  0  0  0  0
   -0.9661    1.1073    0.0000 S   0  0  0  0  0  0  0  0  0  0  0  0
    2.7228   -0.6049    0.0000 N   0  0  0  0  0  0  0  0  0  0  0  0
  1  2  2  0
  2  3  1  0
  4  2  1  6
  4  5  1  0
  5  6  1  0
  6  7  1  0
  7  8  1  0
  8  9  2  0
  9 10  1  0
 10 11  1  0
 11 12  2  0
 12 13  1  0
 13 14  1  0
 13 15  2  0
 15 16  1  0
 15 17  1  0
 17 18  1  0
  7 19  2  0
 19  4  1  0
 18  8  1  0
 17 10  2  0
M  END
>  <compound_id>  (79) 
RS14

>  <name>  (79) 
7'-BrLuc

>  <structural_class>  (79) 
Ring-substituted benzothiazole luciferins, 4'-, 5'-, 7'-

>  <subfamily>  (79) 
benzothiazole

>  <smiles>  (79) 
O=C(O)[C@H]1CSC(c2nc3ccc(O)c(Br)c3s2)=N1

>  <inchi>  (79) 
InChI=1S/C11H7BrN2O3S2/c12-7-6(15)2-1-4-8(7)19-10(13-4)9-14-5(3-18-9)11(16)17/h1-2,5,15H,3H2,(H,16,17)/t5-/m1/s1

>  <inchikey>  (79) 
PTGBXHFAWNOZQD-RXMQYKEDSA-N

>  <molecular_formula>  (79) 
C11H7BrN2O3S2

>  <iupac_name>  (79) 
(S)-2-(7-Bromo-6-hydroxybenzothiazol-2-yl)-4,5-dihydrothiazole-4-carboxylic acid

$$$$
RS15
     RDKit          2D

 19 21  0  0  0  0  0  0  0  0999 V2000
    3.9982    2.3018    0.0000 C   0  0  0  0  0  0  0  0  0  0  0  0
    3.6930    0.8332    0.0000 C   0  0  0  0  0  0  0  0  0  0  0  0
    4.8122   -0.1655    0.0000 C   0  0  0  0  0  0  0  0  0  0  0  0
    6.2367    0.3045    0.0000 O   0  0  0  0  0  0  0  0  0  0  0  0
    4.5070   -1.6341    0.0000 C   0  0  0  0  0  0  0  0  0  0  0  0
    3.0825   -2.1041    0.0000 C   0  0  0  0  0  0  0  0  0  0  0  0
    1.9633   -1.1054    0.0000 C   0  0  0  0  0  0  0  0  0  0  0  0
    0.4722   -1.2690    0.0000 N   0  0  0  0  0  0  0  0  0  0  0  0
   -0.1441    0.0986    0.0000 C   0  0  0  0  0  0  0  0  0  0  0  0
   -1.6127    0.4038    0.0000 C   0  0  0  0  0  0  0  0  0  0  0  0
   -2.7228   -0.6049    0.0000 N   0  0  0  0  0  0  0  0  0  0  0  0
   -4.0253    0.1392    0.0000 C   0  0  0  0  0  0  0  0  0  0  0  0
   -5.3928   -0.4771    0.0000 C   0  0  0  0  0  0  0  0  0  0  0  0
   -5.5429   -1.9696    0.0000 O   0  0  0  0  0  0  0  0  0  0  0  0
   -6.6103    0.3991    0.0000 O   0  0  0  0  0  0  0  0  0  0  0  0
   -3.7200    1.6078    0.0000 C   0  0  0  0  0  0  0  0  0  0  0  0
   -2.2290    1.7713    0.0000 S   0  0  0  0  0  0  0  0  0  0  0  0
    0.9661    1.1073    0.0000 S   0  0  0  0  0  0  0  0  0  0  0  0
    2.2685    0.3632    0.0000 C   0  0  0  0  0  0  0  0  0  0  0  0
  1  2  1  0
  2  3  2  0
  3  4  1  0
  3  5  1  0
  5  6  2  0
  6  7  1  0
  7  8  1  0
  8  9  2  0
  9 10  1  0
 10 11  2  0
 11 12  1  0
 12 13  1  1
 13 14  2  0
 13 15  1  0
 12 16  1  0
 16 17  1  0
  9 18  1  0
 18 19  1  0
 19  2  1  0
 19  7  2  0
 17 10  1  0
M  END
>  <compound_id>  (80) 
RS15

>  <name>  (80) 
7'-MeLuc

>  <structural_class>  (80) 
Ring-substituted benzothiazole luciferins, 4'-, 5'-, 7'-

>  <subfamily>  (80) 
benzothiazole

>  <smiles>  (80) 
Cc1c(O)ccc2nc(C3=N[C@@H](C(=O)O)CS3)sc12

>  <inchi>  (80) 
InChI=1S/C12H10N2O3S2/c1-5-8(15)3-2-6-9(5)19-11(13-6)10-14-7(4-18-10)12(16)17/h2-3,7,15H,4H2,1H3,(H,16,17)/t7-/m1/s1

>  <inchikey>  (80) 
YUTJZWUYHLUCEJ-SSDOTTSWSA-N

>  <molecular_formula>  (80) 
C12H10N2O3S2

>  <iupac_name>  (80) 
7'-Methyl luciferin = (4S)-2-(6-hydroxy-7-methyl-1,3-benzothiazol-2-yl)-4,5-dihydro-1,3-thiazole-4-carboxylic acid

$$$$
RS16
     RDKit          2D

 19 21  0  0  0  0  0  0  0  0999 V2000
    6.6103    0.3991    0.0000 O   0  0  0  0  0  0  0  0  0  0  0  0
    5.3928   -0.4771    0.0000 C   0  0  0  0  0  0  0  0  0  0  0  0
    5.5429   -1.9696    0.0000 O   0  0  0  0  0  0  0  0  0  0  0  0
    4.0253    0.1392    0.0000 C   0  0  0  0  0  0  0  0  0  0  0  0
    3.7200    1.6078    0.0000 C   0  0  0  0  0  0  0  0  0  0  0  0
    2.2290    1.7713    0.0000 S   0  0  0  0  0  0  0  0  0  0  0  0
    1.6127    0.4038    0.0000 C   0  0  0  0  0  0  0  0  0  0  0  0
    0.1441    0.0986    0.0000 C   0  0  0  0  0  0  0  0  0  0  0  0
   -0.4722   -1.2690    0.0000 N   0  0  0  0  0  0  0  0  0  0  0  0
   -1.9633   -1.1054    0.0000 C   0  0  0  0  0  0  0  0  0  0  0  0
   -3.0825   -2.1041    0.0000 C   0  0  0  0  0  0  0  0  0  0  0  0
   -4.5070   -1.6341    0.0000 C   0  0  0  0  0  0  0  0  0  0  0  0
   -4.8122   -0.1655    0.0000 C   0  0  0  0  0  0  0  0  0  0  0  0
   -6.2367    0.3045    0.0000 O   0  0  0  0  0  0  0  0  0  0  0  0
   -3.6930    0.8332    0.0000 C   0  0  0  0  0  0  0  0  0  0  0  0
   -3.9982    2.3018    0.0000 Cl  0  0  0  0  0  0  0  0  0  0  0  0
   -2.2685    0.3632    0.0000 C   0  0  0  0  0  0  0  0  0  0  0  0
   -0.9661    1.1073    0.0000 S   0  0  0  0  0  0  0  0  0  0  0  0
    2.7228   -0.6049    0.0000 N   0  0  0  0  0  0  0  0  0  0  0  0
  1  2  2  0
  2  3  1  0
  4  2  1  6
  4  5  1  0
  5  6  1  0
  6  7  1  0
  7  8  1  0
  8  9  2  0
  9 10  1  0
 10 11  1  0
 11 12  2  0
 12 13  1  0
 13 14  1  0
 13 15  2  0
 15 16  1  0
 15 17  1  0
 17 18  1  0
  7 19  2  0
 19  4  1  0
 18  8  1  0
 17 10  2  0
M  END
>  <compound_id>  (81) 
RS16

>  <name>  (81) 
7Cl-LH2

>  <structural_class>  (81) 
Ring-substituted benzothiazole luciferins, 4'-, 5'-, 7'-

>  <subfamily>  (81) 
benzothiazole

>  <smiles>  (81) 
O=C(O)[C@H]1CSC(c2nc3ccc(O)c(Cl)c3s2)=N1

>  <inchi>  (81) 
InChI=1S/C11H7ClN2O3S2/c12-7-6(15)2-1-4-8(7)19-10(13-4)9-14-5(3-18-9)11(16)17/h1-2,5,15H,3H2,(H,16,17)/t5-/m1/s1

>  <inchikey>  (81) 
SFSPXSASQRQGEC-RXMQYKEDSA-N

>  <molecular_formula>  (81) 
C11H7ClN2O3S2

>  <iupac_name>  (81) 
D-(-)-2-(7'-Chloro-6'-hydroxy-2'-benzothiazolyl)-delta-2-thiazoline-4-carboxylic acid

$$$$
RS17
     RDKit          2D

 22 24  0  0  0  0  0  0  0  0999 V2000
    6.4188   -3.3961    0.0000 C   0  0  0  0  0  0  0  0  0  0  0  0
    5.1291   -2.6302    0.0000 C   0  0  0  0  0  0  0  0  0  0  0  0
    5.1475   -1.1303    0.0000 C   0  0  0  0  0  0  0  0  0  0  0  0
    3.8578   -0.3644    0.0000 C   0  0  0  0  0  0  0  0  0  0  0  0
    2.5496   -1.0984    0.0000 C   0  0  0  0  0  0  0  0  0  0  0  0
    1.2599   -0.3325    0.0000 C   0  0  0  0  0  0  0  0  0  0  0  0
   -0.1723   -0.7784    0.0000 N   0  0  0  0  0  0  0  0  0  0  0  0
   -1.0390    0.4458    0.0000 C   0  0  0  0  0  0  0  0  0  0  0  0
   -2.5389    0.4643    0.0000 C   0  0  0  0  0  0  0  0  0  0  0  0
   -3.4354   -0.7383    0.0000 N   0  0  0  0  0  0  0  0  0  0  0  0
   -4.8562   -0.2573    0.0000 C   0  0  0  0  0  0  0  0  0  0  0  0
   -6.0804   -1.1240    0.0000 C   0  0  0  0  0  0  0  0  0  0  0  0
   -5.9420   -2.6176    0.0000 O   0  0  0  0  0  0  0  0  0  0  0  0
   -7.4432   -0.4971    0.0000 O   0  0  0  0  0  0  0  0  0  0  0  0
   -4.8377    1.2426    0.0000 C   0  0  0  0  0  0  0  0  0  0  0  0
   -3.4056    1.6885    0.0000 S   0  0  0  0  0  0  0  0  0  0  0  0
   -0.1424    1.6484    0.0000 S   0  0  0  0  0  0  0  0  0  0  0  0
    1.2783    1.1674    0.0000 C   0  0  0  0  0  0  0  0  0  0  0  0
    2.5865    1.9014    0.0000 C   0  0  0  0  0  0  0  0  0  0  0  0
    2.6049    3.4013    0.0000 Cl  0  0  0  0  0  0  0  0  0  0  0  0
    3.8762    1.1355    0.0000 C   0  0  0  0  0  0  0  0  0  0  0  0
    5.1844    1.8694    0.0000 O   0  0  0  0  0  0  0  0  0  0  0  0
  1  2  2  0
  2  3  1  0
  3  4  1  0
  4  5  2  0
  5  6  1  0
  6  7  1  0
  7  8  2  0
  8  9  1  0
  9 10  2  0
 10 11  1  0
 11 12  1  1
 12 13  2  0
 12 14  1  0
 11 15  1  0
 15 16  1  0
  8 17  1  0
 17 18  1  0
 18 19  1  0
 19 20  1  0
 19 21  2  0
 21 22  1  0
 21  4  1  0
 18  6  2  0
 16  9  1  0
M  END
>  <compound_id>  (82) 
RS17

>  <name>  (82) 
7Cl5allyl-LH2

>  <structural_class>  (82) 
Ring-substituted benzothiazole luciferins, 4'-, 5'-, 7'-

>  <subfamily>  (82) 
benzothiazole

>  <smiles>  (82) 
C=CCc1cc2nc(C3=N[C@@H](C(=O)O)CS3)sc2c(Cl)c1O

>  <inchi>  (82) 
InChI=1S/C14H11ClN2O3S2/c1-2-3-6-4-7-11(9(15)10(6)18)22-13(16-7)12-17-8(5-21-12)14(19)20/h2,4,8,18H,1,3,5H2,(H,19,20)/t8-/m1/s1

>  <inchikey>  (82) 
MLBCBJJMEBUENB-MRVPVSSYSA-N

>  <molecular_formula>  (82) 
C14H11ClN2O3S2

>  <iupac_name>  (82) 
D-(-)-2-(5'-Allyl-7'-chloro-6'-hydroxy-2'-benzothiazolyl)-delta-2-thiazoline-4-carboxylic acid

$$$$
RS18
     RDKit          2D

 21 23  0  0  0  0  0  0  0  0999 V2000
    7.2412    0.0107    0.0000 O   0  0  0  0  0  0  0  0  0  0  0  0
    5.9535   -0.7586    0.0000 C   0  0  0  0  0  0  0  0  0  0  0  0
    5.9759   -2.2585    0.0000 O   0  0  0  0  0  0  0  0  0  0  0  0
    4.6434   -0.0281    0.0000 C   0  0  0  0  0  0  0  0  0  0  0  0
    4.4644    1.4612    0.0000 C   0  0  0  0  0  0  0  0  0  0  0  0
    2.9927    1.7511    0.0000 S   0  0  0  0  0  0  0  0  0  0  0  0
    2.2621    0.4411    0.0000 C   0  0  0  0  0  0  0  0  0  0  0  0
    0.7729    0.2621    0.0000 C   0  0  0  0  0  0  0  0  0  0  0  0
    0.0423   -1.0480    0.0000 N   0  0  0  0  0  0  0  0  0  0  0  0
   -1.4294   -0.7581    0.0000 C   0  0  0  0  0  0  0  0  0  0  0  0
   -2.6296   -1.6578    0.0000 C   0  0  0  0  0  0  0  0  0  0  0  0
   -4.0089   -1.0681    0.0000 C   0  0  0  0  0  0  0  0  0  0  0  0
   -5.2091   -1.9678    0.0000 C   0  0  0  0  0  0  0  0  0  0  0  0
   -6.5884   -1.3782    0.0000 O   0  0  0  0  0  0  0  0  0  0  0  0
   -4.1879    0.4211    0.0000 C   0  0  0  0  0  0  0  0  0  0  0  0
   -5.5672    1.0107    0.0000 O   0  0  0  0  0  0  0  0  0  0  0  0
   -2.9877    1.3208    0.0000 C   0  0  0  0  0  0  0  0  0  0  0  0
   -3.1667    2.8101    0.0000 Cl  0  0  0  0  0  0  0  0  0  0  0  0
   -1.6084    0.7312    0.0000 C   0  0  0  0  0  0  0  0  0  0  0  0
   -0.2473    1.3617    0.0000 S   0  0  0  0  0  0  0  0  0  0  0  0
    3.2823   -0.6586    0.0000 N   0  0  0  0  0  0  0  0  0  0  0  0
  1  2  2  0
  2  3  1  0
  4  2  1  6
  4  5  1  0
  5  6  1  0
  6  7  1  0
  7  8  1  0
  8  9  2  0
  9 10  1  0
 10 11  1  0
 11 12  2  0
 12 13  1  0
 13 14  1  0
 12 15  1  0
 15 16  1  0
 15 17  2  0
 17 18  1  0
 17 19  1  0
 19 20  1  0
  7 21  2  0
 21  4  1  0
 20  8  1  0
 19 10  2  0
M  END
>  <compound_id>  (83) 
RS18

>  <name>  (83) 
7Cl5HM-LH2

>  <structural_class>  (83) 
Ring-substituted benzothiazole luciferins, 4'-, 5'-, 7'-

>  <subfamily>  (83) 
benzothiazole

>  <smiles>  (83) 
O=C(O)[C@H]1CSC(c2nc3cc(CO)c(O)c(Cl)c3s2)=N1

>  <inchi>  (83) 
InChI=1S/C12H9ClN2O4S2/c13-7-8(17)4(2-16)1-5-9(7)21-11(14-5)10-15-6(3-20-10)12(18)19/h1,6,16-17H,2-3H2,(H,18,19)/t6-/m1/s1

>  <inchikey>  (83) 
YGECDRCXQSJBQC-ZCFIWIBFSA-N

>  <molecular_formula>  (83) 
C12H9ClN2O4S2

>  <iupac_name>  (83) 
D-(-)-2-(7'-Chloro-6'-hydroxy-5'-hydroxymethyl-2'-benzothiazolyl)-delta-2-thiazoline-4-carboxylic acid

$$$$
RS19
     RDKit          2D

 19 21  0  0  0  0  0  0  0  0999 V2000
    6.6103    0.3991    0.0000 O   0  0  0  0  0  0  0  0  0  0  0  0
    5.3928   -0.4771    0.0000 C   0  0  0  0  0  0  0  0  0  0  0  0
    5.5429   -1.9696    0.0000 O   0  0  0  0  0  0  0  0  0  0  0  0
    4.0253    0.1392    0.0000 C   0  0  0  0  0  0  0  0  0  0  0  0
    3.7200    1.6078    0.0000 C   0  0  0  0  0  0  0  0  0  0  0  0
    2.2290    1.7713    0.0000 S   0  0  0  0  0  0  0  0  0  0  0  0
    1.6127    0.4038    0.0000 C   0  0  0  0  0  0  0  0  0  0  0  0
    0.1441    0.0986    0.0000 C   0  0  0  0  0  0  0  0  0  0  0  0
   -0.4722   -1.2690    0.0000 N   0  0  0  0  0  0  0  0  0  0  0  0
   -1.9633   -1.1054    0.0000 C   0  0  0  0  0  0  0  0  0  0  0  0
   -3.0825   -2.1041    0.0000 C   0  0  0  0  0  0  0  0  0  0  0  0
   -4.5070   -1.6341    0.0000 C   0  0  0  0  0  0  0  0  0  0  0  0
   -4.8122   -0.1655    0.0000 C   0  0  0  0  0  0  0  0  0  0  0  0
   -6.2367    0.3045    0.0000 O   0  0  0  0  0  0  0  0  0  0  0  0
   -3.6930    0.8332    0.0000 C   0  0  0  0  0  0  0  0  0  0  0  0
   -3.9982    2.3018    0.0000 F   0  0  0  0  0  0  0  0  0  0  0  0
   -2.2685    0.3632    0.0000 C   0  0  0  0  0  0  0  0  0  0  0  0
   -0.9661    1.1073    0.0000 S   0  0  0  0  0  0  0  0  0  0  0  0
    2.7228   -0.6049    0.0000 N   0  0  0  0  0  0  0  0  0  0  0  0
  1  2  2  0
  2  3  1  0
  4  2  1  6
  4  5  1  0
  5  6  1  0
  6  7  1  0
  7  8  1  0
  8  9  2  0
  9 10  1  0
 10 11  1  0
 11 12  2  0
 12 13  1  0
 13 14  1  0
 13 15  2  0
 15 16  1  0
 15 17  1  0
 17 18  1  0
  7 19  2  0
 19  4  1  0
 18  8  1  0
 17 10  2  0
M  END
>  <compound_id>  (84) 
RS19

>  <name>  (84) 
7F-LH2

>  <structural_class>  (84) 
Ring-substituted benzothiazole luciferins, 4'-, 5'-, 7'-

>  <subfamily>  (84) 
benzothiazole

>  <smiles>  (84) 
O=C(O)[C@H]1CSC(c2nc3ccc(O)c(F)c3s2)=N1

>  <inchi>  (84) 
InChI=1S/C11H7FN2O3S2/c12-7-6(15)2-1-4-8(7)19-10(13-4)9-14-5(3-18-9)11(16)17/h1-2,5,15H,3H2,(H,16,17)/t5-/m1/s1

>  <inchikey>  (84) 
PQZHFQOXSCNALP-RXMQYKEDSA-N

>  <molecular_formula>  (84) 
C11H7FN2O3S2

>  <iupac_name>  (84) 
D-(-)-2-(7'-Fluoro-6'-hydroxy-2'-benzothiazolyl)-delta-2-thiazoline-4-carboxylic acid

$$$$
RS20
     RDKit          2D

 22 24  0  0  0  0  0  0  0  0999 V2000
    6.4188   -3.3961    0.0000 C   0  0  0  0  0  0  0  0  0  0  0  0
    5.1291   -2.6302    0.0000 C   0  0  0  0  0  0  0  0  0  0  0  0
    5.1475   -1.1303    0.0000 C   0  0  0  0  0  0  0  0  0  0  0  0
    3.8578   -0.3644    0.0000 C   0  0  0  0  0  0  0  0  0  0  0  0
    2.5496   -1.0984    0.0000 C   0  0  0  0  0  0  0  0  0  0  0  0
    1.2599   -0.3325    0.0000 C   0  0  0  0  0  0  0  0  0  0  0  0
   -0.1723   -0.7784    0.0000 N   0  0  0  0  0  0  0  0  0  0  0  0
   -1.0390    0.4458    0.0000 C   0  0  0  0  0  0  0  0  0  0  0  0
   -2.5389    0.4643    0.0000 C   0  0  0  0  0  0  0  0  0  0  0  0
   -3.4354   -0.7383    0.0000 N   0  0  0  0  0  0  0  0  0  0  0  0
   -4.8562   -0.2573    0.0000 C   0  0  0  0  0  0  0  0  0  0  0  0
   -6.0804   -1.1240    0.0000 C   0  0  0  0  0  0  0  0  0  0  0  0
   -5.9420   -2.6176    0.0000 O   0  0  0  0  0  0  0  0  0  0  0  0
   -7.4432   -0.4971    0.0000 O   0  0  0  0  0  0  0  0  0  0  0  0
   -4.8377    1.2426    0.0000 C   0  0  0  0  0  0  0  0  0  0  0  0
   -3.4056    1.6885    0.0000 S   0  0  0  0  0  0  0  0  0  0  0  0
   -0.1424    1.6484    0.0000 S   0  0  0  0  0  0  0  0  0  0  0  0
    1.2783    1.1674    0.0000 C   0  0  0  0  0  0  0  0  0  0  0  0
    2.5865    1.9014    0.0000 C   0  0  0  0  0  0  0  0  0  0  0  0
    2.6049    3.4013    0.0000 F   0  0  0  0  0  0  0  0  0  0  0  0
    3.8762    1.1355    0.0000 C   0  0  0  0  0  0  0  0  0  0  0  0
    5.1844    1.8694    0.0000 O   0  0  0  0  0  0  0  0  0  0  0  0
  1  2  2  0
  2  3  1  0
  3  4  1  0
  4  5  2  0
  5  6  1  0
  6  7  1  0
  7  8  2  0
  8  9  1  0
  9 10  2  0
 10 11  1  0
 11 12  1  1
 12 13  2  0
 12 14  1  0
 11 15  1  0
 15 16  1  0
  8 17  1  0
 17 18  1  0
 18 19  1  0
 19 20  1  0
 19 21  2  0
 21 22  1  0
 21  4  1  0
 18  6  2  0
 16  9  1  0
M  END
>  <compound_id>  (85) 
RS20

>  <name>  (85) 
7F5allyl-LH2

>  <structural_class>  (85) 
Ring-substituted benzothiazole luciferins, 4'-, 5'-, 7'-

>  <subfamily>  (85) 
benzothiazole

>  <smiles>  (85) 
C=CCc1cc2nc(C3=N[C@@H](C(=O)O)CS3)sc2c(F)c1O

>  <inchi>  (85) 
InChI=1S/C14H11FN2O3S2/c1-2-3-6-4-7-11(9(15)10(6)18)22-13(16-7)12-17-8(5-21-12)14(19)20/h2,4,8,18H,1,3,5H2,(H,19,20)/t8-/m1/s1

>  <inchikey>  (85) 
XTRGQNSGUYCIET-MRVPVSSYSA-N

>  <molecular_formula>  (85) 
C14H11FN2O3S2

>  <iupac_name>  (85) 
D-(-)-2-(5'-Allyl-7'-fluoro-6'-hydroxy-2'-benzothiazolyl)-delta-2-thiazoline-4-carboxylic acid

$$$$
RS21
     RDKit          2D

 21 23  0  0  0  0  0  0  0  0999 V2000
    7.2412    0.0107    0.0000 O   0  0  0  0  0  0  0  0  0  0  0  0
    5.9535   -0.7586    0.0000 C   0  0  0  0  0  0  0  0  0  0  0  0
    5.9759   -2.2585    0.0000 O   0  0  0  0  0  0  0  0  0  0  0  0
    4.6434   -0.0281    0.0000 C   0  0  0  0  0  0  0  0  0  0  0  0
    4.4644    1.4612    0.0000 C   0  0  0  0  0  0  0  0  0  0  0  0
    2.9927    1.7511    0.0000 S   0  0  0  0  0  0  0  0  0  0  0  0
    2.2621    0.4411    0.0000 C   0  0  0  0  0  0  0  0  0  0  0  0
    0.7729    0.2621    0.0000 C   0  0  0  0  0  0  0  0  0  0  0  0
    0.0423   -1.0480    0.0000 N   0  0  0  0  0  0  0  0  0  0  0  0
   -1.4294   -0.7581    0.0000 C   0  0  0  0  0  0  0  0  0  0  0  0
   -2.6296   -1.6578    0.0000 C   0  0  0  0  0  0  0  0  0  0  0  0
   -4.0089   -1.0681    0.0000 C   0  0  0  0  0  0  0  0  0  0  0  0
   -5.2091   -1.9678    0.0000 C   0  0  0  0  0  0  0  0  0  0  0  0
   -6.5884   -1.3782    0.0000 O   0  0  0  0  0  0  0  0  0  0  0  0
   -4.1879    0.4211    0.0000 C   0  0  0  0  0  0  0  0  0  0  0  0
   -5.5672    1.0107    0.0000 O   0  0  0  0  0  0  0  0  0  0  0  0
   -2.9877    1.3208    0.0000 C   0  0  0  0  0  0  0  0  0  0  0  0
   -3.1667    2.8101    0.0000 F   0  0  0  0  0  0  0  0  0  0  0  0
   -1.6084    0.7312    0.0000 C   0  0  0  0  0  0  0  0  0  0  0  0
   -0.2473    1.3617    0.0000 S   0  0  0  0  0  0  0  0  0  0  0  0
    3.2823   -0.6586    0.0000 N   0  0  0  0  0  0  0  0  0  0  0  0
  1  2  2  0
  2  3  1  0
  4  2  1  6
  4  5  1  0
  5  6  1  0
  6  7  1  0
  7  8  1  0
  8  9  2  0
  9 10  1  0
 10 11  1  0
 11 12  2  0
 12 13  1  0
 13 14  1  0
 12 15  1  0
 15 16  1  0
 15 17  2  0
 17 18  1  0
 17 19  1  0
 19 20  1  0
  7 21  2  0
 21  4  1  0
 20  8  1  0
 19 10  2  0
M  END
>  <compound_id>  (86) 
RS21

>  <name>  (86) 
7F5HM-LH2

>  <structural_class>  (86) 
Ring-substituted benzothiazole luciferins, 4'-, 5'-, 7'-

>  <subfamily>  (86) 
benzothiazole

>  <smiles>  (86) 
O=C(O)[C@H]1CSC(c2nc3cc(CO)c(O)c(F)c3s2)=N1

>  <inchi>  (86) 
InChI=1S/C12H9FN2O4S2/c13-7-8(17)4(2-16)1-5-9(7)21-11(14-5)10-15-6(3-20-10)12(18)19/h1,6,16-17H,2-3H2,(H,18,19)/t6-/m1/s1

>  <inchikey>  (86) 
KEUQFZBABMOCTP-ZCFIWIBFSA-N

>  <molecular_formula>  (86) 
C12H9FN2O4S2

>  <iupac_name>  (86) 
D-(-)-2-(7'-Fluoro-6'-hydroxy-5'-hydroxymethyl-2'-benzothiazolyl)-delta-2-thiazoline-4-carboxylic acid

$$$$
RS22
     RDKit          2D

 22 24  0  0  0  0  0  0  0  0999 V2000
    5.3948    3.1452    0.0000 C   0  0  0  0  0  0  0  0  0  0  0  0
    4.8952    1.7309    0.0000 N   0  0  0  0  0  0  0  0  0  0  0  0
    5.8702    0.5910    0.0000 C   0  0  0  0  0  0  0  0  0  0  0  0
    3.4205    1.4564    0.0000 C   0  0  0  0  0  0  0  0  0  0  0  0
    2.9209    0.0421    0.0000 C   0  0  0  0  0  0  0  0  0  0  0  0
    3.8959   -1.0978    0.0000 C   0  0  0  0  0  0  0  0  0  0  0  0
    5.3706   -0.8233    0.0000 O   0  0  0  0  0  0  0  0  0  0  0  0
    3.3963   -2.5122    0.0000 C   0  0  0  0  0  0  0  0  0  0  0  0
    1.9216   -2.7866    0.0000 C   0  0  0  0  0  0  0  0  0  0  0  0
    0.9466   -1.6468    0.0000 C   0  0  0  0  0  0  0  0  0  0  0  0
   -0.5530   -1.6086    0.0000 N   0  0  0  0  0  0  0  0  0  0  0  0
   -0.9801   -0.1707    0.0000 C   0  0  0  0  0  0  0  0  0  0  0  0
   -2.3944    0.3289    0.0000 C   0  0  0  0  0  0  0  0  0  0  0  0
   -3.6300   -0.5216    0.0000 N   0  0  0  0  0  0  0  0  0  0  0  0
   -4.8207    0.3906    0.0000 C   0  0  0  0  0  0  0  0  0  0  0  0
   -6.2586   -0.0365    0.0000 C   0  0  0  0  0  0  0  0  0  0  0  0
   -6.6076   -1.4953    0.0000 O   0  0  0  0  0  0  0  0  0  0  0  0
   -7.3474    0.9952    0.0000 O   0  0  0  0  0  0  0  0  0  0  0  0
   -4.3210    1.8050    0.0000 C   0  0  0  0  0  0  0  0  0  0  0  0
   -2.8215    1.7668    0.0000 S   0  0  0  0  0  0  0  0  0  0  0  0
    0.2555    0.6798    0.0000 S   0  0  0  0  0  0  0  0  0  0  0  0
    1.4462   -0.2324    0.0000 C   0  0  0  0  0  0  0  0  0  0  0  0
  1  2  1  0
  2  3  1  0
  2  4  1  0
  4  5  1  0
  5  6  2  0
  6  7  1  0
  6  8  1  0
  8  9  2  0
  9 10  1  0
 10 11  1  0
 11 12  2  0
 12 13  1  0
 13 14  2  0
 14 15  1  0
 15 16  1  1
 16 17  2  0
 16 18  1  0
 15 19  1  0
 19 20  1  0
 12 21  1  0
 21 22  1  0
 22  5  1  0
 22 10  2  0
 20 13  1  0
M  END
>  <compound_id>  (87) 
RS22

>  <name>  (87) 
Sterically modified luciferin 2b (Jones 2017, C7'-modified)

>  <structural_class>  (87) 
Ring-substituted benzothiazole luciferins, 4'-, 5'-, 7'-

>  <subfamily>  (87) 
benzothiazole

>  <smiles>  (87) 
CN(C)Cc1c(O)ccc2nc(C3=N[C@@H](C(=O)O)CS3)sc12

>  <inchi>  (87) 
InChI=1S/C14H15N3O3S2/c1-17(2)5-7-10(18)4-3-8-11(7)22-13(15-8)12-16-9(6-21-12)14(19)20/h3-4,9,18H,5-6H2,1-2H3,(H,19,20)/t9-/m1/s1

>  <inchikey>  (87) 
HMXUZAIODZCNAE-SECBINFHSA-N

>  <molecular_formula>  (87) 
C14H15N3O3S2

>  <iupac_name>  (87) 
7'- luciferin = (4S)-2-{7--6-hydroxy-1,3-benzothiazol-2-yl}-4,5-dihydro-1,3-thiazole-4-carboxylic acid

$$$$
RS23
     RDKit          2D

 25 28  0  0  0  0  0  0  0  0999 V2000
    8.1295    1.4757    0.0000 O   0  0  0  0  0  0  0  0  0  0  0  0
    7.1386    0.3495    0.0000 C   0  0  0  0  0  0  0  0  0  0  0  0
    7.6185   -1.0717    0.0000 O   0  0  0  0  0  0  0  0  0  0  0  0
    5.6679    0.6445    0.0000 C   0  0  0  0  0  0  0  0  0  0  0  0
    5.0421    2.0077    0.0000 C   0  0  0  0  0  0  0  0  0  0  0  0
    3.5523    1.8338    0.0000 S   0  0  0  0  0  0  0  0  0  0  0  0
    3.2573    0.3631    0.0000 C   0  0  0  0  0  0  0  0  0  0  0  0
    1.8940   -0.2627    0.0000 C   0  0  0  0  0  0  0  0  0  0  0  0
    1.5990   -1.7334    0.0000 N   0  0  0  0  0  0  0  0  0  0  0  0
    0.1092   -1.9073    0.0000 C   0  0  0  0  0  0  0  0  0  0  0  0
   -0.7585   -3.1309    0.0000 C   0  0  0  0  0  0  0  0  0  0  0  0
   -2.2520   -2.9912    0.0000 C   0  0  0  0  0  0  0  0  0  0  0  0
   -2.8778   -1.6280    0.0000 C   0  0  0  0  0  0  0  0  0  0  0  0
   -4.3713   -1.4883    0.0000 O   0  0  0  0  0  0  0  0  0  0  0  0
   -2.0101   -0.4044    0.0000 C   0  0  0  0  0  0  0  0  0  0  0  0
   -2.6359    0.9588    0.0000 C   0  0  0  0  0  0  0  0  0  0  0  0
   -4.1294    1.0984    0.0000 N   0  0  0  0  0  0  0  0  0  0  0  0
   -4.7552    2.4617    0.0000 C   0  0  0  0  0  0  0  0  0  0  0  0
   -6.2487    2.6013    0.0000 C   0  0  0  0  0  0  0  0  0  0  0  0
   -7.1164    1.3778    0.0000 O   0  0  0  0  0  0  0  0  0  0  0  0
   -6.4906    0.0145    0.0000 C   0  0  0  0  0  0  0  0  0  0  0  0
   -4.9971   -0.1251    0.0000 C   0  0  0  0  0  0  0  0  0  0  0  0
   -0.5166   -0.5441    0.0000 C   0  0  0  0  0  0  0  0  0  0  0  0
    0.5865    0.4723    0.0000 S   0  0  0  0  0  0  0  0  0  0  0  0
    4.5648   -0.3719    0.0000 N   0  0  0  0  0  0  0  0  0  0  0  0
  1  2  2  0
  2  3  1  0
  4  2  1  6
  4  5  1  0
  5  6  1  0
  6  7  1  0
  7  8  1  0
  8  9  2  0
  9 10  1  0
 10 11  1  0
 11 12  2  0
 12 13  1  0
 13 14  1  0
 13 15  2  0
 15 16  1  0
 16 17  1  0
 17 18  1  0
 18 19  1  0
 19 20  1  0
 20 21  1  0
 21 22  1  0
 15 23  1  0
 23 24  1  0
  7 25  2  0
 25  4  1  0
 24  8  1  0
 23 10  2  0
 22 17  1  0
M  END
>  <compound_id>  (88) 
RS23

>  <name>  (88) 
Sterically modified luciferin 2c (Jones 2017, C7'-modified)

>  <structural_class>  (88) 
Ring-substituted benzothiazole luciferins, 4'-, 5'-, 7'-

>  <subfamily>  (88) 
benzothiazole

>  <smiles>  (88) 
O=C(O)[C@H]1CSC(c2nc3ccc(O)c(CN4CCOCC4)c3s2)=N1

>  <inchi>  (88) 
InChI=1S/C16H17N3O4S2/c20-12-2-1-10-13(9(12)7-19-3-5-23-6-4-19)25-15(17-10)14-18-11(8-24-14)16(21)22/h1-2,11,20H,3-8H2,(H,21,22)/t11-/m1/s1

>  <inchikey>  (88) 
OJTREXPXRCEBOH-LLVKDONJSA-N

>  <molecular_formula>  (88) 
C16H17N3O4S2

>  <iupac_name>  (88) 
7'- luciferin = (4S)-2--4,5-dihydro-1,3-thiazole-4-carboxylic acid

$$$$
RS24
     RDKit          2D

 31 35  0  0  0  0  0  0  0  0999 V2000
    9.9507    2.0058    0.0000 O   0  0  0  0  0  0  0  0  0  0  0  0
    9.0590    0.7997    0.0000 C   0  0  0  0  0  0  0  0  0  0  0  0
    9.6576   -0.5757    0.0000 O   0  0  0  0  0  0  0  0  0  0  0  0
    7.5685    0.9689    0.0000 C   0  0  0  0  0  0  0  0  0  0  0  0
    6.8294    2.2742    0.0000 C   0  0  0  0  0  0  0  0  0  0  0  0
    5.3596    1.9746    0.0000 S   0  0  0  0  0  0  0  0  0  0  0  0
    5.1904    0.4842    0.0000 C   0  0  0  0  0  0  0  0  0  0  0  0
    3.8851   -0.2550    0.0000 C   0  0  0  0  0  0  0  0  0  0  0  0
    3.7159   -1.7454    0.0000 N   0  0  0  0  0  0  0  0  0  0  0  0
    2.2461   -2.0450    0.0000 C   0  0  0  0  0  0  0  0  0  0  0  0
    1.4853   -3.3377    0.0000 C   0  0  0  0  0  0  0  0  0  0  0  0
   -0.0147   -3.3252    0.0000 C   0  0  0  0  0  0  0  0  0  0  0  0
   -0.7538   -2.0199    0.0000 C   0  0  0  0  0  0  0  0  0  0  0  0
   -2.2537   -2.0074    0.0000 O   0  0  0  0  0  0  0  0  0  0  0  0
    0.0070   -0.7272    0.0000 C   0  0  0  0  0  0  0  0  0  0  0  0
   -0.7321    0.5781    0.0000 C   0  0  0  0  0  0  0  0  0  0  0  0
   -2.2320    0.5906    0.0000 N   0  0  0  0  0  0  0  0  0  0  0  0
   -2.9712    1.8959    0.0000 C   0  0  0  0  0  0  0  0  0  0  0  0
   -4.4711    1.9084    0.0000 C   0  0  0  0  0  0  0  0  0  0  0  0
   -5.2319    0.6157    0.0000 C   0  0  0  0  0  0  0  0  0  0  0  0
   -6.7319    0.6282    0.0000 N   0  0  0  0  0  0  0  0  0  0  0  0
   -7.4710    1.9335    0.0000 C   0  0  0  0  0  0  0  0  0  0  0  0
   -8.9709    1.9460    0.0000 C   0  0  0  0  0  0  0  0  0  0  0  0
   -9.7318    0.6533    0.0000 O   0  0  0  0  0  0  0  0  0  0  0  0
   -8.9927   -0.6520    0.0000 C   0  0  0  0  0  0  0  0  0  0  0  0
   -7.4927   -0.6645    0.0000 C   0  0  0  0  0  0  0  0  0  0  0  0
   -4.4928   -0.6896    0.0000 C   0  0  0  0  0  0  0  0  0  0  0  0
   -2.9929   -0.7021    0.0000 C   0  0  0  0  0  0  0  0  0  0  0  0
    1.5070   -0.7397    0.0000 C   0  0  0  0  0  0  0  0  0  0  0  0
    2.5200    0.3666    0.0000 S   0  0  0  0  0  0  0  0  0  0  0  0
    6.5556   -0.1374    0.0000 N   0  0  0  0  0  0  0  0  0  0  0  0
  1  2  2  0
  2  3  1  0
  4  2  1  6
  4  5  1  0
  5  6  1  0
  6  7  1  0
  7  8  1  0
  8  9  2  0
  9 10  1  0
 10 11  1  0
 11 12  2  0
 12 13  1  0
 13 14  1  0
 13 15  2  0
 15 16  1  0
 16 17  1  0
 17 18  1  0
 18 19  1  0
 19 20  1  0
 20 21  1  0
 21 22  1  0
 22 23  1  0
 23 24  1  0
 24 25  1  0
 25 26  1  0
 20 27  1  0
 27 28  1  0
 15 29  1  0
 29 30  1  0
  7 31  2  0
 31  4  1  0
 30  8  1  0
 29 10  2  0
 28 17  1  0
 26 21  1  0
M  END
>  <compound_id>  (89) 
RS24

>  <name>  (89) 
Sterically modified luciferin 2d (Jones 2017, C7'-modified)

>  <structural_class>  (89) 
Ring-substituted benzothiazole luciferins, 4'-, 5'-, 7'-

>  <subfamily>  (89) 
benzothiazole

>  <smiles>  (89) 
O=C(O)[C@H]1CSC(c2nc3ccc(O)c(CN4CCC(N5CCOCC5)CC4)c3s2)=N1

>  <inchi>  (89) 
InChI=1S/C21H26N4O4S2/c26-17-2-1-15-18(31-20(22-15)19-23-16(12-30-19)21(27)28)14(17)11-24-5-3-13(4-6-24)25-7-9-29-10-8-25/h1-2,13,16,26H,3-12H2,(H,27,28)/t16-/m1/s1

>  <inchikey>  (89) 
PLORSEIVPOUWNB-MRXNPFEDSA-N

>  <molecular_formula>  (89) 
C21H26N4O4S2

>  <iupac_name>  (89) 
7'-{methyl} luciferin = (4S)-2-(6-hydroxy-7-{methyl}-1,3-benzothiazol-2-yl)-4,5-dihydro-1,3-thiazole-4-carboxylic acid

$$$$
RS25
     RDKit          2D

 25 28  0  0  0  0  0  0  0  0999 V2000
    7.8586   -1.5577    0.0000 O   0  0  0  0  0  0  0  0  0  0  0  0
    6.3827   -1.8256    0.0000 C   0  0  0  0  0  0  0  0  0  0  0  0
    5.8767   -3.2377    0.0000 O   0  0  0  0  0  0  0  0  0  0  0  0
    5.4127   -0.6814    0.0000 C   0  0  0  0  0  0  0  0  0  0  0  0
    5.7683    0.7758    0.0000 C   0  0  0  0  0  0  0  0  0  0  0  0
    4.4923    1.5643    0.0000 S   0  0  0  0  0  0  0  0  0  0  0  0
    3.3480    0.5944    0.0000 C   0  0  0  0  0  0  0  0  0  0  0  0
    1.8908    0.9499    0.0000 C   0  0  0  0  0  0  0  0  0  0  0  0
    0.7466   -0.0200    0.0000 N   0  0  0  0  0  0  0  0  0  0  0  0
   -0.5295    0.7685    0.0000 C   0  0  0  0  0  0  0  0  0  0  0  0
   -1.9693    0.3478    0.0000 C   0  0  0  0  0  0  0  0  0  0  0  0
   -2.3248   -1.1095    0.0000 C   0  0  0  0  0  0  0  0  0  0  0  0
   -3.7646   -1.5302    0.0000 N   0  0  0  0  0  0  0  0  0  0  0  0
   -4.8488   -0.4936    0.0000 C   0  0  0  0  0  0  0  0  0  0  0  0
   -6.2886   -0.9143    0.0000 C   0  0  0  0  0  0  0  0  0  0  0  0
   -6.6442   -2.3716    0.0000 O   0  0  0  0  0  0  0  0  0  0  0  0
   -5.5600   -3.4081    0.0000 C   0  0  0  0  0  0  0  0  0  0  0  0
   -4.1202   -2.9874    0.0000 C   0  0  0  0  0  0  0  0  0  0  0  0
   -3.0535    1.3843    0.0000 C   0  0  0  0  0  0  0  0  0  0  0  0
   -2.6979    2.8416    0.0000 C   0  0  0  0  0  0  0  0  0  0  0  0
   -3.7821    3.8781    0.0000 O   0  0  0  0  0  0  0  0  0  0  0  0
   -1.2581    3.2623    0.0000 C   0  0  0  0  0  0  0  0  0  0  0  0
   -0.1739    2.2257    0.0000 C   0  0  0  0  0  0  0  0  0  0  0  0
    1.3219    2.3379    0.0000 S   0  0  0  0  0  0  0  0  0  0  0  0
    3.9169   -0.7936    0.0000 N   0  0  0  0  0  0  0  0  0  0  0  0
  1  2  2  0
  2  3  1  0
  4  2  1  6
  4  5  1  0
  5  6  1  0
  6  7  1  0
  7  8  1  0
  8  9  2  0
  9 10  1  0
 10 11  2  0
 11 12  1  0
 12 13  1  0
 13 14  1  0
 14 15  1  0
 15 16  1  0
 16 17  1  0
 17 18  1  0
 11 19  1  0
 19 20  2  0
 20 21  1  0
 20 22  1  0
 22 23  2  0
 23 24  1  0
  7 25  2  0
 25  4  1  0
 24  8  1  0
 23 10  1  0
 18 13  1  0
M  END
>  <compound_id>  (90) 
RS25

>  <name>  (90) 
Sterically modified luciferin 3b (Jones 2017, C4'-modified)

>  <structural_class>  (90) 
Ring-substituted benzothiazole luciferins, 4'-, 5'-, 7'-

>  <subfamily>  (90) 
benzothiazole

>  <smiles>  (90) 
O=C(O)[C@H]1CSC(c2nc3c(CN4CCOCC4)cc(O)cc3s2)=N1

>  <inchi>  (90) 
InChI=1S/C16H17N3O4S2/c20-10-5-9(7-19-1-3-23-4-2-19)13-12(6-10)25-15(18-13)14-17-11(8-24-14)16(21)22/h5-6,11,20H,1-4,7-8H2,(H,21,22)/t11-/m1/s1

>  <inchikey>  (90) 
BXQCKSZAQWODQD-LLVKDONJSA-N

>  <molecular_formula>  (90) 
C16H17N3O4S2

>  <iupac_name>  (90) 
4'- luciferin = (4S)-2--4,5-dihydro-1,3-thiazole-4-carboxylic acid

$$$$
TZ01
     RDKit          2D

 20 22  0  0  0  0  0  0  0  0999 V2000
   -3.5643   -2.5237    0.0000 C   0  0  0  0  0  0  0  0  0  0  0  0
   -3.2865   -1.0497    0.0000 C   0  0  0  0  0  0  0  0  0  0  0  0
   -4.7815   -0.9275    0.0000 C   0  0  0  0  0  0  0  0  0  0  0  0
   -1.8496   -1.4801    0.0000 S   0  0  0  0  0  0  0  0  0  0  0  0
   -0.9962   -0.2464    0.0000 C   0  0  0  0  0  0  0  0  0  0  0  0
    0.5034   -0.2117    0.0000 C   0  0  0  0  0  0  0  0  0  0  0  0
    1.4129   -1.4045    0.0000 N   0  0  0  0  0  0  0  0  0  0  0  0
    2.8284   -0.9081    0.0000 C   0  0  0  0  0  0  0  0  0  0  0  0
    4.1444   -1.6278    0.0000 C   0  0  0  0  0  0  0  0  0  0  0  0
    5.4257   -0.8479    0.0000 C   0  0  0  0  0  0  0  0  0  0  0  0
    5.3910    0.6517    0.0000 C   0  0  0  0  0  0  0  0  0  0  0  0
    6.6723    1.4315    0.0000 O   0  0  0  0  0  0  0  0  0  0  0  0
    4.0750    1.3714    0.0000 C   0  0  0  0  0  0  0  0  0  0  0  0
    2.7936    0.5915    0.0000 C   0  0  0  0  0  0  0  0  0  0  0  0
    1.3567    1.0219    0.0000 S   0  0  0  0  0  0  0  0  0  0  0  0
   -1.9058    0.9463    0.0000 N   0  0  0  0  0  0  0  0  0  0  0  0
   -3.3212    0.4499    0.0000 C   0  0  0  0  0  0  0  0  0  0  0  0
   -4.5549    1.3033    0.0000 C   0  0  0  0  0  0  0  0  0  0  0  0
   -5.9107    0.6616    0.0000 O   0  0  0  0  0  0  0  0  0  0  0  0
   -4.4326    2.7983    0.0000 O   0  0  0  0  0  0  0  0  0  0  0  0
  1  2  1  0
  2  3  1  0
  2  4  1  0
  4  5  1  0
  5  6  1  0
  6  7  2  0
  7  8  1  0
  8  9  1  0
  9 10  2  0
 10 11  1  0
 11 12  1  0
 11 13  2  0
 13 14  1  0
 14 15  1  0
  5 16  2  0
 16 17  1  0
 17 18  1  6
 18 19  2  0
 18 20  1  0
 17  2  1  0
 15  6  1  0
 14  8  2  0
M  END
>  <compound_id>  (91) 
TZ01

>  <name>  (91) 
5,5-dimethyl-D-luciferin

>  <structural_class>  (91) 
Thiazoline-ring-modified and truncated luciferins

>  <subfamily>  (91) 
benzothiazole

>  <smiles>  (91) 
CC1(C)SC(c2nc3ccc(O)cc3s2)=N[C@H]1C(=O)O

>  <inchi>  (91) 
InChI=1S/C13H12N2O3S2/c1-13(2)9(12(17)18)15-11(20-13)10-14-7-4-3-6(16)5-8(7)19-10/h3-5,9,16H,1-2H3,(H,17,18)/t9-/m0/s1

>  <inchikey>  (91) 
XXZCJMWSTWCVLY-VIFPVBQESA-N

>  <molecular_formula>  (91) 
C13H12N2O3S2

>  <iupac_name>  (91) 
2-(6-hydroxy-1,3-benzothiazol-2-yl)-5,5-dimethyl-4,5-dihydro-1,3-thiazole-4-carboxylic acid

>  <stereochemistry>  (91) 
D_enantiomer

$$$$
TZ02
     RDKit          2D

 18 20  0  0  0  0  0  0  0  0999 V2000
   -6.4362   -0.6918    0.0000 N   0  0  0  0  0  0  0  0  0  0  0  0
   -5.0318   -0.1649    0.0000 C   0  0  0  0  0  0  0  0  0  0  0  0
   -4.7859    1.3148    0.0000 C   0  0  0  0  0  0  0  0  0  0  0  0
   -3.3815    1.8417    0.0000 C   0  0  0  0  0  0  0  0  0  0  0  0
   -2.2230    0.8889    0.0000 C   0  0  0  0  0  0  0  0  0  0  0  0
   -0.7397    1.1122    0.0000 N   0  0  0  0  0  0  0  0  0  0  0  0
   -0.0689   -0.2294    0.0000 C   0  0  0  0  0  0  0  0  0  0  0  0
    1.4108   -0.4753    0.0000 C   0  0  0  0  0  0  0  0  0  0  0  0
    2.4795    0.5772    0.0000 N   0  0  0  0  0  0  0  0  0  0  0  0
    3.8108   -0.1139    0.0000 C   0  0  0  0  0  0  0  0  0  0  0  0
    5.1525    0.5569    0.0000 C   0  0  0  0  0  0  0  0  0  0  0  0
    5.2424    2.0542    0.0000 O   0  0  0  0  0  0  0  0  0  0  0  0
    6.4042   -0.2696    0.0000 O   0  0  0  0  0  0  0  0  0  0  0  0
    3.5649   -1.5936    0.0000 C   0  0  0  0  0  0  0  0  0  0  0  0
    2.0816   -1.8170    0.0000 Se  0  0  0  0  0  2  0  0  0  0  0  0
   -1.1376   -1.2820    0.0000 S   0  0  0  0  0  0  0  0  0  0  0  0
   -2.4689   -0.5908    0.0000 C   0  0  0  0  0  0  0  0  0  0  0  0
   -3.8733   -1.1177    0.0000 C   0  0  0  0  0  0  0  0  0  0  0  0
  1  2  1  0
  2  3  1  0
  3  4  2  0
  4  5  1  0
  5  6  1  0
  6  7  2  0
  7  8  1  0
  8  9  2  0
  9 10  1  0
 10 11  1  1
 11 12  2  0
 11 13  1  0
 10 14  1  0
 14 15  1  0
  7 16  1  0
 16 17  1  0
 17 18  1  0
 18  2  2  0
 17  5  2  0
 15  8  1  0
M  END
>  <compound_id>  (92) 
TZ02

>  <name>  (92) 
Aminoseleno-D-luciferin

>  <structural_class>  (92) 
Thiazoline-ring-modified and truncated luciferins

>  <subfamily>  (92) 
benzothiazole

>  <smiles>  (92) 
Nc1ccc2nc(C3=N[C@@H](C(=O)O)C[Se]3)sc2c1

>  <inchi>  (92) 
InChI=1S/C11H9N3O2SSe/c12-5-1-2-6-8(3-5)17-9(13-6)10-14-7(4-18-10)11(15)16/h1-3,7H,4,12H2,(H,15,16)/t7-/m1/s1

>  <inchikey>  (92) 
AQIRXTPMSNSUTJ-SSDOTTSWSA-N

>  <molecular_formula>  (92) 
C11H9N3O2SSe

>  <iupac_name>  (92) 
aminoseleno-D-luciferin; (4S)-2-(6-amino-1,3-benzothiazol-2-yl)-4,5-dihydro-1,3-selenazole-4-carboxylic acid

$$$$
TZ03
     RDKit          2D

 18 20  0  0  0  0  0  0  0  0999 V2000
   -6.3914    0.0591    0.0000 O   0  0  0  0  0  0  0  0  0  0  0  0
   -5.0796    0.7866    0.0000 C   0  0  0  0  0  0  0  0  0  0  0  0
   -5.0538    2.2864    0.0000 O   0  0  0  0  0  0  0  0  0  0  0  0
   -3.7937    0.0143    0.0000 C   0  0  0  0  0  0  0  0  0  0  0  0
   -3.6626   -1.4800    0.0000 C   0  0  0  0  0  0  0  0  0  0  0  0
   -2.2010   -1.8171    0.0000 C   0  0  0  0  0  0  0  0  0  0  0  0
   -1.4287   -0.5311    0.0000 C   0  0  0  0  0  0  0  0  0  0  0  0
    0.0656   -0.4001    0.0000 C   0  0  0  0  0  0  0  0  0  0  0  0
    1.0499   -1.5319    0.0000 N   0  0  0  0  0  0  0  0  0  0  0  0
    2.4305   -0.9455    0.0000 C   0  0  0  0  0  0  0  0  0  0  0  0
    3.7901   -1.5791    0.0000 C   0  0  0  0  0  0  0  0  0  0  0  0
    5.0187   -0.7185    0.0000 C   0  0  0  0  0  0  0  0  0  0  0  0
    4.8876    0.7758    0.0000 C   0  0  0  0  0  0  0  0  0  0  0  0
    6.1161    1.6364    0.0000 O   0  0  0  0  0  0  0  0  0  0  0  0
    3.5280    1.4094    0.0000 C   0  0  0  0  0  0  0  0  0  0  0  0
    2.2995    0.5488    0.0000 C   0  0  0  0  0  0  0  0  0  0  0  0
    0.8378    0.8859    0.0000 S   0  0  0  0  0  0  0  0  0  0  0  0
   -2.4131    0.6007    0.0000 N   0  0  0  0  0  0  0  0  0  0  0  0
  1  2  2  0
  2  3  1  0
  4  2  1  6
  4  5  1  0
  5  6  1  0
  6  7  1  0
  7  8  1  0
  8  9  2  0
  9 10  1  0
 10 11  1  0
 11 12  2  0
 12 13  1  0
 13 14  1  0
 13 15  2  0
 15 16  1  0
 16 17  1  0
  7 18  2  0
 18  4  1  0
 17  8  1  0
 16 10  2  0
M  END
>  <compound_id>  (93) 
TZ03

>  <name>  (93) 
Carboluciferin

>  <structural_class>  (93) 
Thiazoline-ring-modified and truncated luciferins

>  <subfamily>  (93) 
benzothiazole

>  <smiles>  (93) 
O=C(O)[C@H]1CCC(c2nc3ccc(O)cc3s2)=N1

>  <inchi>  (93) 
InChI=1S/C12H10N2O3S/c15-6-1-2-7-10(5-6)18-11(14-7)8-3-4-9(13-8)12(16)17/h1-2,5,9,15H,3-4H2,(H,16,17)/t9-/m1/s1

>  <inchikey>  (93) 
ZESOAUFAZBONCH-SECBINFHSA-N

>  <molecular_formula>  (93) 
C12H10N2O3S

>  <iupac_name>  (93) 
(2R)-5-(6-hydroxy-1,3-benzothiazol-2-yl)-3,4-dihydro-2H-pyrrole-2-carboxylic acid

$$$$
TZ04
     RDKit          2D

 19 21  0  0  0  0  0  0  0  0999 V2000
   -4.2917   -2.6180    0.0000 O   0  0  0  0  0  0  0  0  0  0  0  0
   -4.7378   -1.1859    0.0000 C   0  0  0  0  0  0  0  0  0  0  0  0
   -6.2011   -0.8562    0.0000 O   0  0  0  0  0  0  0  0  0  0  0  0
   -3.7206   -0.0835    0.0000 C   0  0  0  0  0  0  0  0  0  0  0  0
   -4.1666    1.3486    0.0000 C   0  0  0  0  0  0  0  0  0  0  0  0
   -3.1494    2.4510    0.0000 C   0  0  0  0  0  0  0  0  0  0  0  0
   -1.6861    2.1212    0.0000 S   0  0  0  0  0  0  0  0  0  0  0  0
   -1.2400    0.6891    0.0000 C   0  0  0  0  0  0  0  0  0  0  0  0
    0.2233    0.3594    0.0000 C   0  0  0  0  0  0  0  0  0  0  0  0
    0.8166   -1.0183    0.0000 N   0  0  0  0  0  0  0  0  0  0  0  0
    2.3102   -0.8797    0.0000 C   0  0  0  0  0  0  0  0  0  0  0  0
    3.4126   -1.8970    0.0000 C   0  0  0  0  0  0  0  0  0  0  0  0
    4.8447   -1.4509    0.0000 C   0  0  0  0  0  0  0  0  0  0  0  0
    5.1745    0.0124    0.0000 C   0  0  0  0  0  0  0  0  0  0  0  0
    6.6066    0.4585    0.0000 O   0  0  0  0  0  0  0  0  0  0  0  0
    4.0721    1.0296    0.0000 C   0  0  0  0  0  0  0  0  0  0  0  0
    2.6399    0.5836    0.0000 C   0  0  0  0  0  0  0  0  0  0  0  0
    1.3502    1.3494    0.0000 S   0  0  0  0  0  0  0  0  0  0  0  0
   -2.2573   -0.4133    0.0000 N   0  0  0  0  0  0  0  0  0  0  0  0
  1  2  2  0
  2  3  1  0
  2  4  1  0
  4  5  1  0
  5  6  1  0
  6  7  1  0
  7  8  1  0
  8  9  1  0
  9 10  2  0
 10 11  1  0
 11 12  1  0
 12 13  2  0
 13 14  1  0
 14 15  1  0
 14 16  2  0
 16 17  1  0
 17 18  1  0
  8 19  2  0
 19  4  1  0
 18  9  1  0
 17 11  2  0
M  END
>  <compound_id>  (94) 
TZ04

>  <name>  (94) 
D,L-homoluciferin

>  <structural_class>  (94) 
Thiazoline-ring-modified and truncated luciferins

>  <subfamily>  (94) 
benzothiazole

>  <smiles>  (94) 
O=C(O)C1CCSC(c2nc3ccc(O)cc3s2)=N1

>  <inchi>  (94) 
InChI=1S/C12H10N2O3S2/c15-6-1-2-7-9(5-6)19-11(13-7)10-14-8(12(16)17)3-4-18-10/h1-2,5,8,15H,3-4H2,(H,16,17)

>  <inchikey>  (94) 
JFAHVLRPWFVXIK-UHFFFAOYSA-N

>  <molecular_formula>  (94) 
C12H10N2O3S2

>  <iupac_name>  (94) 
2-(6-hydroxy-1,3-benzothiazol-2-yl)-5,6-dihydro-4H-1,3-thiazine-4-carboxylic acid

>  <stereochemistry>  (94) 
racemate

$$$$
TZ05
     RDKit          2D

 15 17  0  0  0  0  0  0  0  0999 V2000
   -5.2279   -1.1040    0.0000 O   0  0  0  0  0  0  0  0  0  0  0  0
   -3.8883   -0.4292    0.0000 C   0  0  0  0  0  0  0  0  0  0  0  0
   -3.8028    1.0684    0.0000 C   0  0  0  0  0  0  0  0  0  0  0  0
   -2.4632    1.7431    0.0000 C   0  0  0  0  0  0  0  0  0  0  0  0
   -1.2090    0.9204    0.0000 C   0  0  0  0  0  0  0  0  0  0  0  0
    0.2417    1.3019    0.0000 N   0  0  0  0  0  0  0  0  0  0  0  0
    1.0528    0.0401    0.0000 C   0  0  0  0  0  0  0  0  0  0  0  0
    2.5504   -0.0454    0.0000 C   0  0  0  0  0  0  0  0  0  0  0  0
    3.4998    1.1160    0.0000 N   0  0  0  0  0  0  0  0  0  0  0  0
    4.8976    0.5719    0.0000 C   0  0  0  0  0  0  0  0  0  0  0  0
    4.8122   -0.9256    0.0000 C   0  0  0  0  0  0  0  0  0  0  0  0
    3.3615   -1.3071    0.0000 S   0  0  0  0  0  0  0  0  0  0  0  0
    0.1035   -1.1212    0.0000 S   0  0  0  0  0  0  0  0  0  0  0  0
   -1.2944   -0.5772    0.0000 C   0  0  0  0  0  0  0  0  0  0  0  0
   -2.6341   -1.2520    0.0000 C   0  0  0  0  0  0  0  0  0  0  0  0
  1  2  1  0
  2  3  1  0
  3  4  2  0
  4  5  1  0
  5  6  1  0
  6  7  2  0
  7  8  1  0
  8  9  2  0
  9 10  1  0
 10 11  1  0
 11 12  1  0
  7 13  1  0
 13 14  1  0
 14 15  1  0
 15  2  2  0
 14  5  2  0
 12  8  1  0
M  END
>  <compound_id>  (95) 
TZ05

>  <name>  (95) 
decarboxyluciferin

>  <structural_class>  (95) 
Thiazoline-ring-modified and truncated luciferins

>  <subfamily>  (95) 
benzothiazole

>  <smiles>  (95) 
Oc1ccc2nc(C3=NCCS3)sc2c1

>  <inchi>  (95) 
InChI=1S/C10H8N2OS2/c13-6-1-2-7-8(5-6)15-10(12-7)9-11-3-4-14-9/h1-2,5,13H,3-4H2

>  <inchikey>  (95) 
RGQRPLWPFIWZQZ-UHFFFAOYSA-N

>  <molecular_formula>  (95) 
C10H8N2OS2

>  <iupac_name>  (95) 
2-(6-hydroxy-1,3-benzothiazol-2-yl)-4,5-dihydro-1,3-thiazole

$$$$
TZ06
     RDKit          2D

 18 20  0  0  0  0  0  0  0  0999 V2000
   -6.3914    0.0591    0.0000 O   0  0  0  0  0  0  0  0  0  0  0  0
   -5.0796    0.7866    0.0000 C   0  0  0  0  0  0  0  0  0  0  0  0
   -5.0538    2.2864    0.0000 O   0  0  0  0  0  0  0  0  0  0  0  0
   -3.7937    0.0143    0.0000 C   0  0  0  0  0  0  0  0  0  0  0  0
   -3.6626   -1.4800    0.0000 C   0  0  0  0  0  0  0  0  0  0  0  0
   -2.2010   -1.8171    0.0000 S   0  0  0  0  0  0  0  0  0  0  0  0
   -1.4287   -0.5311    0.0000 C   0  0  0  0  0  0  0  0  0  0  0  0
    0.0656   -0.4001    0.0000 C   0  0  0  0  0  0  0  0  0  0  0  0
    1.0499   -1.5319    0.0000 N   0  0  0  0  0  0  0  0  0  0  0  0
    2.4305   -0.9455    0.0000 C   0  0  0  0  0  0  0  0  0  0  0  0
    3.7901   -1.5791    0.0000 C   0  0  0  0  0  0  0  0  0  0  0  0
    5.0187   -0.7185    0.0000 C   0  0  0  0  0  0  0  0  0  0  0  0
    4.8876    0.7758    0.0000 C   0  0  0  0  0  0  0  0  0  0  0  0
    6.1161    1.6364    0.0000 O   0  0  0  0  0  0  0  0  0  0  0  0
    3.5280    1.4094    0.0000 C   0  0  0  0  0  0  0  0  0  0  0  0
    2.2995    0.5488    0.0000 C   0  0  0  0  0  0  0  0  0  0  0  0
    0.8378    0.8859    0.0000 S   0  0  0  0  0  0  0  0  0  0  0  0
   -2.4131    0.6007    0.0000 N   0  0  0  0  0  0  0  0  0  0  0  0
  1  2  2  0
  2  3  1  0
  2  4  1  0
  4  5  2  0
  5  6  1  0
  6  7  1  0
  7  8  1  0
  8  9  2  0
  9 10  1  0
 10 11  1  0
 11 12  2  0
 12 13  1  0
 13 14  1  0
 13 15  2  0
 15 16  1  0
 16 17  1  0
  7 18  2  0
 18  4  1  0
 17  8  1  0
 16 10  2  0
M  END
>  <compound_id>  (96) 
TZ06

>  <name>  (96) 
dehydroluciferin

>  <structural_class>  (96) 
Thiazoline-ring-modified and truncated luciferins

>  <subfamily>  (96) 
benzothiazole

>  <smiles>  (96) 
O=C(O)c1csc(-c2nc3ccc(O)cc3s2)n1

>  <inchi>  (96) 
InChI=1S/C11H6N2O3S2/c14-5-1-2-6-8(3-5)18-10(12-6)9-13-7(4-17-9)11(15)16/h1-4,14H,(H,15,16)

>  <inchikey>  (96) 
CYCGRDQQIOGCKX-UHFFFAOYSA-N

>  <molecular_formula>  (96) 
C11H6N2O3S2

$$$$
TZ07
     RDKit          2D

 18 20  0  0  0  0  0  0  0  0999 V2000
   -6.3914    0.0591    0.0000 O   0  0  0  0  0  0  0  0  0  0  0  0
   -5.0796    0.7866    0.0000 C   0  0  0  0  0  0  0  0  0  0  0  0
   -5.0538    2.2864    0.0000 O   0  0  0  0  0  0  0  0  0  0  0  0
   -3.7937    0.0143    0.0000 C   0  0  0  0  0  0  0  0  0  0  0  0
   -3.6626   -1.4800    0.0000 C   0  0  0  0  0  0  0  0  0  0  0  0
   -2.2010   -1.8171    0.0000 N   0  0  0  0  0  0  0  0  0  0  0  0
   -1.4287   -0.5311    0.0000 C   0  0  0  0  0  0  0  0  0  0  0  0
    0.0656   -0.4001    0.0000 C   0  0  0  0  0  0  0  0  0  0  0  0
    1.0499   -1.5319    0.0000 N   0  0  0  0  0  0  0  0  0  0  0  0
    2.4305   -0.9455    0.0000 C   0  0  0  0  0  0  0  0  0  0  0  0
    3.7901   -1.5791    0.0000 C   0  0  0  0  0  0  0  0  0  0  0  0
    5.0187   -0.7185    0.0000 C   0  0  0  0  0  0  0  0  0  0  0  0
    4.8876    0.7758    0.0000 C   0  0  0  0  0  0  0  0  0  0  0  0
    6.1161    1.6364    0.0000 O   0  0  0  0  0  0  0  0  0  0  0  0
    3.5280    1.4094    0.0000 C   0  0  0  0  0  0  0  0  0  0  0  0
    2.2995    0.5488    0.0000 C   0  0  0  0  0  0  0  0  0  0  0  0
    0.8378    0.8859    0.0000 S   0  0  0  0  0  0  0  0  0  0  0  0
   -2.4131    0.6007    0.0000 N   0  0  0  0  0  0  0  0  0  0  0  0
  1  2  2  0
  2  3  1  0
  4  2  1  6
  4  5  1  0
  5  6  1  0
  6  7  1  0
  7  8  1  0
  8  9  2  0
  9 10  1  0
 10 11  1  0
 11 12  2  0
 12 13  1  0
 13 14  1  0
 13 15  2  0
 15 16  1  0
 16 17  1  0
  7 18  2  0
 18  4  1  0
 17  8  1  0
 16 10  2  0
M  END
>  <compound_id>  (97) 
TZ07

>  <name>  (97) 
Imidazoline luciferin (benzothiazole core)

>  <structural_class>  (97) 
Thiazoline-ring-modified and truncated luciferins

>  <subfamily>  (97) 
benzothiazole

>  <smiles>  (97) 
O=C(O)[C@H]1CNC(c2nc3ccc(O)cc3s2)=N1

>  <inchi>  (97) 
InChI=1S/C11H9N3O3S/c15-5-1-2-6-8(3-5)18-10(14-6)9-12-4-7(13-9)11(16)17/h1-3,7,15H,4H2,(H,12,13)(H,16,17)/t7-/m1/s1

>  <inchikey>  (97) 
VPHMJYYTWIXNMT-SSDOTTSWSA-N

>  <molecular_formula>  (97) 
C11H9N3O3S

>  <iupac_name>  (97) 
(R)-2-(6-Hydroxy-2-benzothiazolyl)-2-imidazoline-4-carboxylic acid

$$$$
TZ08
     RDKit          2D

 17 18  0  0  0  0  0  0  0  0999 V2000
   -4.6638    2.2629    0.0000 O   0  0  0  0  0  0  0  0  0  0  0  0
   -5.1223    0.8347    0.0000 C   0  0  0  0  0  0  0  0  0  0  0  0
   -6.5884    0.5176    0.0000 O   0  0  0  0  0  0  0  0  0  0  0  0
   -4.1147   -0.2765    0.0000 C   0  0  0  0  0  0  0  0  0  0  0  0
   -2.6486    0.0406    0.0000 N   0  0  0  0  0  0  0  0  0  0  0  0
   -1.6409   -1.0706    0.0000 C   0  0  0  0  0  0  0  0  0  0  0  0
   -2.0994   -2.4988    0.0000 O   0  0  0  0  0  0  0  0  0  0  0  0
   -0.1748   -0.7535    0.0000 C   0  0  0  0  0  0  0  0  0  0  0  0
    0.9434   -1.7533    0.0000 N   0  0  0  0  0  0  0  0  0  0  0  0
    2.2398   -0.9987    0.0000 C   0  0  0  0  0  0  0  0  0  0  0  0
    3.6680   -1.4571    0.0000 C   0  0  0  0  0  0  0  0  0  0  0  0
    4.7792   -0.4495    0.0000 C   0  0  0  0  0  0  0  0  0  0  0  0
    4.4621    1.0166    0.0000 C   0  0  0  0  0  0  0  0  0  0  0  0
    5.5733    2.0242    0.0000 O   0  0  0  0  0  0  0  0  0  0  0  0
    3.0339    1.4751    0.0000 C   0  0  0  0  0  0  0  0  0  0  0  0
    1.9228    0.4674    0.0000 C   0  0  0  0  0  0  0  0  0  0  0  0
    0.4304    0.6189    0.0000 S   0  0  0  0  0  0  0  0  0  0  0  0
  1  2  2  0
  2  3  1  0
  2  4  1  0
  4  5  1  0
  5  6  1  0
  6  7  2  0
  6  8  1  0
  8  9  2  0
  9 10  1  0
 10 11  1  0
 11 12  2  0
 12 13  1  0
 13 14  1  0
 13 15  2  0
 15 16  1  0
 16 17  1  0
 17  8  1  0
 16 10  2  0
M  END
>  <compound_id>  (98) 
TZ08

>  <name>  (98) 
Ioka 2016 analogue 2

>  <structural_class>  (98) 
Thiazoline-ring-modified and truncated luciferins

>  <subfamily>  (98) 
benzothiazole

>  <smiles>  (98) 
O=C(O)CNC(=O)c1nc2ccc(O)cc2s1

>  <inchi>  (98) 
InChI=1S/C10H8N2O4S/c13-5-1-2-6-7(3-5)17-10(12-6)9(16)11-4-8(14)15/h1-3,13H,4H2,(H,11,16)(H,14,15)

>  <inchikey>  (98) 
WTDXWWANLOXROE-UHFFFAOYSA-N

>  <molecular_formula>  (98) 
C10H8N2O4S

>  <iupac_name>  (98) 
2-(6-hydroxy-1,3-benzothiazole-2-carboxamido)acetic acid

$$$$
TZ09
     RDKit          2D

 18 19  0  0  0  0  0  0  0  0999 V2000
   -4.5902    2.3149    0.0000 C   0  0  0  0  0  0  0  0  0  0  0  0
   -3.8245    1.0251    0.0000 C   0  0  0  0  0  0  0  0  0  0  0  0
   -2.3246    1.0432    0.0000 N   0  0  0  0  0  0  0  0  0  0  0  0
   -1.5589   -0.2466    0.0000 C   0  0  0  0  0  0  0  0  0  0  0  0
   -2.2931   -1.5546    0.0000 O   0  0  0  0  0  0  0  0  0  0  0  0
   -0.0590   -0.2284    0.0000 C   0  0  0  0  0  0  0  0  0  0  0  0
    0.8373   -1.4311    0.0000 N   0  0  0  0  0  0  0  0  0  0  0  0
    2.2581   -0.9503    0.0000 C   0  0  0  0  0  0  0  0  0  0  0  0
    3.5662   -1.6845    0.0000 C   0  0  0  0  0  0  0  0  0  0  0  0
    4.8560   -0.9188    0.0000 C   0  0  0  0  0  0  0  0  0  0  0  0
    4.8378    0.5811    0.0000 C   0  0  0  0  0  0  0  0  0  0  0  0
    6.1277    1.3468    0.0000 O   0  0  0  0  0  0  0  0  0  0  0  0
    3.5298    1.3152    0.0000 C   0  0  0  0  0  0  0  0  0  0  0  0
    2.2400    0.5495    0.0000 C   0  0  0  0  0  0  0  0  0  0  0  0
    0.8079    0.9957    0.0000 S   0  0  0  0  0  0  0  0  0  0  0  0
   -4.5587   -0.2830    0.0000 C   0  0  0  0  0  0  0  0  0  0  0  0
   -3.7930   -1.5728    0.0000 O   0  0  0  0  0  0  0  0  0  0  0  0
   -6.0586   -0.3012    0.0000 O   0  0  0  0  0  0  0  0  0  0  0  0
  2  1  1  1
  2  3  1  0
  3  4  1  0
  4  5  2  0
  4  6  1  0
  6  7  2  0
  7  8  1  0
  8  9  1  0
  9 10  2  0
 10 11  1  0
 11 12  1  0
 11 13  2  0
 13 14  1  0
 14 15  1  0
  2 16  1  0
 16 17  2  0
 16 18  1  0
 15  6  1  0
 14  8  2  0
M  END
>  <compound_id>  (99) 
TZ09

>  <name>  (99) 
Ioka 2016 analogue 3

>  <structural_class>  (99) 
Thiazoline-ring-modified and truncated luciferins

>  <subfamily>  (99) 
benzothiazole

>  <smiles>  (99) 
C[C@@H](NC(=O)c1nc2ccc(O)cc2s1)C(=O)O

>  <inchi>  (99) 
InChI=1S/C11H10N2O4S/c1-5(11(16)17)12-9(15)10-13-7-3-2-6(14)4-8(7)18-10/h2-5,14H,1H3,(H,12,15)(H,16,17)/t5-/m1/s1

>  <inchikey>  (99) 
YWEUCQXSVUSTIF-RXMQYKEDSA-N

>  <molecular_formula>  (99) 
C11H10N2O4S

>  <iupac_name>  (99) 
(2R)-2-(6-hydroxy-1,3-benzothiazole-2-carboxamido)propanoic acid

$$$$
TZ10
     RDKit          2D

 19 20  0  0  0  0  0  0  0  0999 V2000
   -1.8805   -1.7783    0.0000 O   0  0  0  0  0  0  0  0  0  0  0  0
   -1.2170   -0.4330    0.0000 C   0  0  0  0  0  0  0  0  0  0  0  0
   -2.0504    0.8142    0.0000 N   0  0  0  0  0  0  0  0  0  0  0  0
   -3.5472    0.7161    0.0000 C   0  0  0  0  0  0  0  0  0  0  0  0
   -4.3806    1.9633    0.0000 C   0  0  0  0  0  0  0  0  0  0  0  0
   -5.8774    1.8652    0.0000 O   0  0  0  0  0  0  0  0  0  0  0  0
   -4.2106   -0.6292    0.0000 C   0  0  0  0  0  0  0  0  0  0  0  0
   -3.3772   -1.8764    0.0000 O   0  0  0  0  0  0  0  0  0  0  0  0
   -5.7074   -0.7274    0.0000 O   0  0  0  0  0  0  0  0  0  0  0  0
    0.2797   -0.3348    0.0000 C   0  0  0  0  0  0  0  0  0  0  0  0
    1.2389   -1.4881    0.0000 N   0  0  0  0  0  0  0  0  0  0  0  0
    2.6321   -0.9322    0.0000 C   0  0  0  0  0  0  0  0  0  0  0  0
    3.9774   -1.5957    0.0000 C   0  0  0  0  0  0  0  0  0  0  0  0
    5.2246   -0.7623    0.0000 C   0  0  0  0  0  0  0  0  0  0  0  0
    5.1265    0.7345    0.0000 C   0  0  0  0  0  0  0  0  0  0  0  0
    6.3737    1.5679    0.0000 O   0  0  0  0  0  0  0  0  0  0  0  0
    3.7812    1.3979    0.0000 C   0  0  0  0  0  0  0  0  0  0  0  0
    2.5340    0.5645    0.0000 C   0  0  0  0  0  0  0  0  0  0  0  0
    1.0801    0.9338    0.0000 S   0  0  0  0  0  0  0  0  0  0  0  0
  1  2  2  0
  2  3  1  0
  3  4  1  0
  4  5  1  1
  5  6  1  0
  4  7  1  0
  7  8  2  0
  7  9  1  0
  2 10  1  0
 10 11  2  0
 11 12  1  0
 12 13  1  0
 13 14  2  0
 14 15  1  0
 15 16  1  0
 15 17  2  0
 17 18  1  0
 18 19  1  0
 19 10  1  0
 18 12  2  0
M  END
>  <compound_id>  (100) 
TZ10

>  <name>  (100) 
Ioka 2016 analogue 4

>  <structural_class>  (100) 
Thiazoline-ring-modified and truncated luciferins

>  <subfamily>  (100) 
benzothiazole

>  <smiles>  (100) 
O=C(N[C@H](CO)C(=O)O)c1nc2ccc(O)cc2s1

>  <inchi>  (100) 
InChI=1S/C11H10N2O5S/c14-4-7(11(17)18)12-9(16)10-13-6-2-1-5(15)3-8(6)19-10/h1-3,7,14-15H,4H2,(H,12,16)(H,17,18)/t7-/m1/s1

>  <inchikey>  (100) 
AREVWBDMYKUKMU-SSDOTTSWSA-N

>  <molecular_formula>  (100) 
C11H10N2O5S

>  <iupac_name>  (100) 
(2R)-3-hydroxy-2-(6-hydroxy-1,3-benzothiazole-2-carboxamido)propanoic acid

$$$$
TZ11
     RDKit          2D

 18 19  0  0  0  0  0  0  0  0999 V2000
   -4.5902    2.3149    0.0000 C   0  0  0  0  0  0  0  0  0  0  0  0
   -3.8245    1.0251    0.0000 C   0  0  0  0  0  0  0  0  0  0  0  0
   -2.3246    1.0432    0.0000 N   0  0  0  0  0  0  0  0  0  0  0  0
   -1.5589   -0.2466    0.0000 C   0  0  0  0  0  0  0  0  0  0  0  0
   -2.2931   -1.5546    0.0000 O   0  0  0  0  0  0  0  0  0  0  0  0
   -0.0590   -0.2284    0.0000 C   0  0  0  0  0  0  0  0  0  0  0  0
    0.8373   -1.4311    0.0000 N   0  0  0  0  0  0  0  0  0  0  0  0
    2.2581   -0.9503    0.0000 C   0  0  0  0  0  0  0  0  0  0  0  0
    3.5662   -1.6845    0.0000 C   0  0  0  0  0  0  0  0  0  0  0  0
    4.8560   -0.9188    0.0000 C   0  0  0  0  0  0  0  0  0  0  0  0
    4.8378    0.5811    0.0000 C   0  0  0  0  0  0  0  0  0  0  0  0
    6.1277    1.3468    0.0000 O   0  0  0  0  0  0  0  0  0  0  0  0
    3.5298    1.3152    0.0000 C   0  0  0  0  0  0  0  0  0  0  0  0
    2.2400    0.5495    0.0000 C   0  0  0  0  0  0  0  0  0  0  0  0
    0.8079    0.9957    0.0000 S   0  0  0  0  0  0  0  0  0  0  0  0
   -4.5587   -0.2830    0.0000 C   0  0  0  0  0  0  0  0  0  0  0  0
   -3.7930   -1.5728    0.0000 O   0  0  0  0  0  0  0  0  0  0  0  0
   -6.0586   -0.3012    0.0000 O   0  0  0  0  0  0  0  0  0  0  0  0
  2  1  1  6
  2  3  1  0
  3  4  1  0
  4  5  2  0
  4  6  1  0
  6  7  2  0
  7  8  1  0
  8  9  1  0
  9 10  2  0
 10 11  1  0
 11 12  1  0
 11 13  2  0
 13 14  1  0
 14 15  1  0
  2 16  1  0
 16 17  2  0
 16 18  1  0
 15  6  1  0
 14  8  2  0
M  END
>  <compound_id>  (101) 
TZ11

>  <name>  (101) 
L-3 (Ioka 2016)

>  <structural_class>  (101) 
Thiazoline-ring-modified and truncated luciferins

>  <subfamily>  (101) 
benzothiazole

>  <smiles>  (101) 
C[C@H](NC(=O)c1nc2ccc(O)cc2s1)C(=O)O

>  <inchi>  (101) 
InChI=1S/C11H10N2O4S/c1-5(11(16)17)12-9(15)10-13-7-3-2-6(14)4-8(7)18-10/h2-5,14H,1H3,(H,12,15)(H,16,17)/t5-/m0/s1

>  <inchikey>  (101) 
YWEUCQXSVUSTIF-YFKPBYRVSA-N

>  <molecular_formula>  (101) 
C11H10N2O4S

>  <iupac_name>  (101) 
(2S)-2-(6-hydroxy-1,3-benzothiazole-2-carboxamido)propanoic acid

$$$$
TZ12
     RDKit          2D

 19 20  0  0  0  0  0  0  0  0999 V2000
   -1.8805   -1.7783    0.0000 O   0  0  0  0  0  0  0  0  0  0  0  0
   -1.2170   -0.4330    0.0000 C   0  0  0  0  0  0  0  0  0  0  0  0
   -2.0504    0.8142    0.0000 N   0  0  0  0  0  0  0  0  0  0  0  0
   -3.5472    0.7161    0.0000 C   0  0  0  0  0  0  0  0  0  0  0  0
   -4.3806    1.9633    0.0000 C   0  0  0  0  0  0  0  0  0  0  0  0
   -5.8774    1.8652    0.0000 O   0  0  0  0  0  0  0  0  0  0  0  0
   -4.2106   -0.6292    0.0000 C   0  0  0  0  0  0  0  0  0  0  0  0
   -3.3772   -1.8764    0.0000 O   0  0  0  0  0  0  0  0  0  0  0  0
   -5.7074   -0.7274    0.0000 O   0  0  0  0  0  0  0  0  0  0  0  0
    0.2797   -0.3348    0.0000 C   0  0  0  0  0  0  0  0  0  0  0  0
    1.2389   -1.4881    0.0000 N   0  0  0  0  0  0  0  0  0  0  0  0
    2.6321   -0.9322    0.0000 C   0  0  0  0  0  0  0  0  0  0  0  0
    3.9774   -1.5957    0.0000 C   0  0  0  0  0  0  0  0  0  0  0  0
    5.2246   -0.7623    0.0000 C   0  0  0  0  0  0  0  0  0  0  0  0
    5.1265    0.7345    0.0000 C   0  0  0  0  0  0  0  0  0  0  0  0
    6.3737    1.5679    0.0000 O   0  0  0  0  0  0  0  0  0  0  0  0
    3.7812    1.3979    0.0000 C   0  0  0  0  0  0  0  0  0  0  0  0
    2.5340    0.5645    0.0000 C   0  0  0  0  0  0  0  0  0  0  0  0
    1.0801    0.9338    0.0000 S   0  0  0  0  0  0  0  0  0  0  0  0
  1  2  2  0
  2  3  1  0
  3  4  1  0
  4  5  1  6
  5  6  1  0
  4  7  1  0
  7  8  2  0
  7  9  1  0
  2 10  1  0
 10 11  2  0
 11 12  1  0
 12 13  1  0
 13 14  2  0
 14 15  1  0
 15 16  1  0
 15 17  2  0
 17 18  1  0
 18 19  1  0
 19 10  1  0
 18 12  2  0
M  END
>  <compound_id>  (102) 
TZ12

>  <name>  (102) 
L-4 (Ioka 2016)

>  <structural_class>  (102) 
Thiazoline-ring-modified and truncated luciferins

>  <subfamily>  (102) 
benzothiazole

>  <smiles>  (102) 
O=C(N[C@@H](CO)C(=O)O)c1nc2ccc(O)cc2s1

>  <inchi>  (102) 
InChI=1S/C11H10N2O5S/c14-4-7(11(17)18)12-9(16)10-13-6-2-1-5(15)3-8(6)19-10/h1-3,7,14-15H,4H2,(H,12,16)(H,17,18)/t7-/m0/s1

>  <inchikey>  (102) 
AREVWBDMYKUKMU-ZETCQYMHSA-N

>  <molecular_formula>  (102) 
C11H10N2O5S

>  <iupac_name>  (102) 
(2S)-3-hydroxy-2-(6-hydroxy-1,3-benzothiazole-2-carboxamido)propanoic acid

$$$$
TZ13
     RDKit          2D

 18 20  0  0  0  0  0  0  0  0999 V2000
   -6.3914    0.0591    0.0000 O   0  0  0  0  0  0  0  0  0  0  0  0
   -5.0796    0.7866    0.0000 C   0  0  0  0  0  0  0  0  0  0  0  0
   -5.0538    2.2864    0.0000 O   0  0  0  0  0  0  0  0  0  0  0  0
   -3.7937    0.0143    0.0000 C   0  0  0  0  0  0  0  0  0  0  0  0
   -3.6626   -1.4800    0.0000 C   0  0  0  0  0  0  0  0  0  0  0  0
   -2.2010   -1.8171    0.0000 C   0  0  0  0  0  0  0  0  0  0  0  0
   -1.4287   -0.5311    0.0000 C   0  0  0  0  0  0  0  0  0  0  0  0
    0.0656   -0.4001    0.0000 C   0  0  0  0  0  0  0  0  0  0  0  0
    1.0499   -1.5319    0.0000 N   0  0  0  0  0  0  0  0  0  0  0  0
    2.4305   -0.9455    0.0000 C   0  0  0  0  0  0  0  0  0  0  0  0
    3.7901   -1.5791    0.0000 C   0  0  0  0  0  0  0  0  0  0  0  0
    5.0187   -0.7185    0.0000 C   0  0  0  0  0  0  0  0  0  0  0  0
    4.8876    0.7758    0.0000 C   0  0  0  0  0  0  0  0  0  0  0  0
    6.1161    1.6364    0.0000 O   0  0  0  0  0  0  0  0  0  0  0  0
    3.5280    1.4094    0.0000 C   0  0  0  0  0  0  0  0  0  0  0  0
    2.2995    0.5488    0.0000 C   0  0  0  0  0  0  0  0  0  0  0  0
    0.8378    0.8859    0.0000 S   0  0  0  0  0  0  0  0  0  0  0  0
   -2.4131    0.6007    0.0000 N   0  0  0  0  0  0  0  0  0  0  0  0
  1  2  2  0
  2  3  1  0
  4  2  1  1
  4  5  1  0
  5  6  1  0
  6  7  1  0
  7  8  1  0
  8  9  2  0
  9 10  1  0
 10 11  1  0
 11 12  2  0
 12 13  1  0
 13 14  1  0
 13 15  2  0
 15 16  1  0
 16 17  1  0
  7 18  2  0
 18  4  1  0
 17  8  1  0
 16 10  2  0
M  END
>  <compound_id>  (103) 
TZ13

>  <name>  (103) 
L-carboluciferin (L-6, Ioka 2016)

>  <structural_class>  (103) 
Thiazoline-ring-modified and truncated luciferins

>  <subfamily>  (103) 
benzothiazole

>  <smiles>  (103) 
O=C(O)[C@@H]1CCC(c2nc3ccc(O)cc3s2)=N1

>  <inchi>  (103) 
InChI=1S/C12H10N2O3S/c15-6-1-2-7-10(5-6)18-11(14-7)8-3-4-9(13-8)12(16)17/h1-2,5,9,15H,3-4H2,(H,16,17)/t9-/m0/s1

>  <inchikey>  (103) 
ZESOAUFAZBONCH-VIFPVBQESA-N

>  <molecular_formula>  (103) 
C12H10N2O3S

>  <iupac_name>  (103) 
(2S)-5-(6-hydroxy-1,3-benzothiazol-2-yl)-3,4-dihydro-2H-pyrrole-2-carboxylic acid

$$$$
TZ14
     RDKit          2D

 18 20  0  0  0  0  0  0  0  0999 V2000
   -6.3914    0.0591    0.0000 O   0  0  0  0  0  0  0  0  0  0  0  0
   -5.0796    0.7866    0.0000 C   0  0  0  0  0  0  0  0  0  0  0  0
   -5.0538    2.2864    0.0000 O   0  0  0  0  0  0  0  0  0  0  0  0
   -3.7937    0.0143    0.0000 C   0  0  0  0  0  0  0  0  0  0  0  0
   -3.6626   -1.4800    0.0000 C   0  0  0  0  0  0  0  0  0  0  0  0
   -2.2010   -1.8171    0.0000 O   0  0  0  0  0  0  0  0  0  0  0  0
   -1.4287   -0.5311    0.0000 C   0  0  0  0  0  0  0  0  0  0  0  0
    0.0656   -0.4001    0.0000 C   0  0  0  0  0  0  0  0  0  0  0  0
    1.0499   -1.5319    0.0000 N   0  0  0  0  0  0  0  0  0  0  0  0
    2.4305   -0.9455    0.0000 C   0  0  0  0  0  0  0  0  0  0  0  0
    3.7901   -1.5791    0.0000 C   0  0  0  0  0  0  0  0  0  0  0  0
    5.0187   -0.7185    0.0000 C   0  0  0  0  0  0  0  0  0  0  0  0
    4.8876    0.7758    0.0000 C   0  0  0  0  0  0  0  0  0  0  0  0
    6.1161    1.6364    0.0000 O   0  0  0  0  0  0  0  0  0  0  0  0
    3.5280    1.4094    0.0000 C   0  0  0  0  0  0  0  0  0  0  0  0
    2.2995    0.5488    0.0000 C   0  0  0  0  0  0  0  0  0  0  0  0
    0.8378    0.8859    0.0000 S   0  0  0  0  0  0  0  0  0  0  0  0
   -2.4131    0.6007    0.0000 N   0  0  0  0  0  0  0  0  0  0  0  0
  1  2  2  0
  2  3  1  0
  4  2  1  6
  4  5  1  0
  5  6  1  0
  6  7  1  0
  7  8  1  0
  8  9  2  0
  9 10  1  0
 10 11  1  0
 11 12  2  0
 12 13  1  0
 13 14  1  0
 13 15  2  0
 15 16  1  0
 16 17  1  0
  7 18  2  0
 18  4  1  0
 17  8  1  0
 16 10  2  0
M  END
>  <compound_id>  (104) 
TZ14

>  <name>  (104) 
Oxa-LH2

>  <structural_class>  (104) 
Thiazoline-ring-modified and truncated luciferins

>  <subfamily>  (104) 
benzothiazole

>  <smiles>  (104) 
O=C(O)[C@H]1COC(c2nc3ccc(O)cc3s2)=N1

>  <inchi>  (104) 
InChI=1S/C11H8N2O4S/c14-5-1-2-6-8(3-5)18-10(13-6)9-12-7(4-17-9)11(15)16/h1-3,7,14H,4H2,(H,15,16)/t7-/m1/s1

>  <inchikey>  (104) 
FDEWJCPHQATACD-SSDOTTSWSA-N

>  <molecular_formula>  (104) 
C11H8N2O4S

>  <iupac_name>  (104) 
(4R)-2-(6-hydroxy-1,3-benzothiazol-2-yl)-4,5-dihydro-1,3-oxazole-4-carboxylic acid

$$$$
CX01
     RDKit          2D

 22 24  0  0  0  0  0  0  0  0999 V2000
   -6.2108    3.0813    0.0000 C   0  0  0  0  0  0  0  0  0  0  0  0
   -5.5926    1.7146    0.0000 C   0  0  0  0  0  0  0  0  0  0  0  0
   -4.0999    1.5667    0.0000 C   0  0  0  0  0  0  0  0  0  0  0  0
   -3.4817    0.2000    0.0000 C   0  0  0  0  0  0  0  0  0  0  0  0
   -4.3562   -1.0187    0.0000 C   0  0  0  0  0  0  0  0  0  0  0  0
   -5.8489   -0.8708    0.0000 O   0  0  0  0  0  0  0  0  0  0  0  0
   -3.7380   -2.3854    0.0000 C   0  0  0  0  0  0  0  0  0  0  0  0
   -2.2454   -2.5334    0.0000 C   0  0  0  0  0  0  0  0  0  0  0  0
   -1.3709   -1.3147    0.0000 C   0  0  0  0  0  0  0  0  0  0  0  0
    0.1218   -1.4627    0.0000 C   0  0  0  0  0  0  0  0  0  0  0  0
    0.9963   -0.2440    0.0000 C   0  0  0  0  0  0  0  0  0  0  0  0
    2.4890   -0.3919    0.0000 C   0  0  0  0  0  0  0  0  0  0  0  0
    3.4861    0.7287    0.0000 N   0  0  0  0  0  0  0  0  0  0  0  0
    4.8600    0.1267    0.0000 C   0  0  0  0  0  0  0  0  0  0  0  0
    6.1546    0.8844    0.0000 C   0  0  0  0  0  0  0  0  0  0  0  0
    6.1457    2.3843    0.0000 O   0  0  0  0  0  0  0  0  0  0  0  0
    7.4580    0.1420    0.0000 O   0  0  0  0  0  0  0  0  0  0  0  0
    4.7120   -1.3660    0.0000 C   0  0  0  0  0  0  0  0  0  0  0  0
    3.2466   -1.6865    0.0000 S   0  0  0  0  0  0  0  0  0  0  0  0
    0.3781    1.1227    0.0000 C   0  0  0  0  0  0  0  0  0  0  0  0
   -1.1146    1.2707    0.0000 C   0  0  0  0  0  0  0  0  0  0  0  0
   -1.9891    0.0520    0.0000 C   0  0  0  0  0  0  0  0  0  0  0  0
  1  2  2  0
  2  3  1  0
  3  4  1  0
  4  5  1  0
  5  6  1  0
  5  7  2  0
  7  8  1  0
  8  9  2  0
  9 10  1  0
 10 11  2  0
 11 12  1  0
 12 13  2  0
 13 14  1  0
 14 15  1  1
 15 16  2  0
 15 17  1  0
 14 18  1  0
 18 19  1  0
 11 20  1  0
 20 21  2  0
 21 22  1  0
 22  4  2  0
 22  9  1  0
 19 12  1  0
M  END
>  <compound_id>  (105) 
CX01

>  <name>  (105) 
5'-Allyl-NapLuc

>  <structural_class>  (105) 
Heterocycle-exchanged core luciferins

>  <subfamily>  (105) 
naphthalene

>  <smiles>  (105) 
C=CCc1c(O)ccc2cc(C3=N[C@@H](C(=O)O)CS3)ccc12

>  <inchi>  (105) 
InChI=1S/C17H15NO3S/c1-2-3-13-12-6-4-11(8-10(12)5-7-15(13)19)16-18-14(9-22-16)17(20)21/h2,4-8,14,19H,1,3,9H2,(H,20,21)/t14-/m1/s1

>  <inchikey>  (105) 
GJZPPDYZNNJQJO-CQSZACIVSA-N

>  <molecular_formula>  (105) 
C17H15NO3S

>  <iupac_name>  (105) 
(4S)-2-(5-allyl-6-hydroxynaphthalen-2-yl)-4,5-dihydro-1,3-thiazole-4-carboxylic acid

$$$$
CX02
     RDKit          2D

 18 20  0  0  0  0  0  0  0  0999 V2000
   -6.3914    0.0591    0.0000 O   0  0  0  0  0  0  0  0  0  0  0  0
   -5.0796    0.7866    0.0000 C   0  0  0  0  0  0  0  0  0  0  0  0
   -5.0538    2.2864    0.0000 O   0  0  0  0  0  0  0  0  0  0  0  0
   -3.7937    0.0143    0.0000 C   0  0  0  0  0  0  0  0  0  0  0  0
   -3.6626   -1.4800    0.0000 C   0  0  0  0  0  0  0  0  0  0  0  0
   -2.2010   -1.8171    0.0000 S   0  0  0  0  0  0  0  0  0  0  0  0
   -1.4287   -0.5311    0.0000 C   0  0  0  0  0  0  0  0  0  0  0  0
    0.0656   -0.4001    0.0000 C   0  0  0  0  0  0  0  0  0  0  0  0
    1.0499   -1.5319    0.0000 N   0  0  0  0  0  0  0  0  0  0  0  0
    2.4305   -0.9455    0.0000 C   0  0  0  0  0  0  0  0  0  0  0  0
    3.7901   -1.5791    0.0000 C   0  0  0  0  0  0  0  0  0  0  0  0
    5.0187   -0.7185    0.0000 C   0  0  0  0  0  0  0  0  0  0  0  0
    4.8876    0.7758    0.0000 C   0  0  0  0  0  0  0  0  0  0  0  0
    6.1161    1.6364    0.0000 O   0  0  0  0  0  0  0  0  0  0  0  0
    3.5280    1.4094    0.0000 C   0  0  0  0  0  0  0  0  0  0  0  0
    2.2995    0.5488    0.0000 C   0  0  0  0  0  0  0  0  0  0  0  0
    0.8378    0.8859    0.0000 N   0  0  0  0  0  0  0  0  0  0  0  0
   -2.4131    0.6007    0.0000 N   0  0  0  0  0  0  0  0  0  0  0  0
  1  2  2  0
  2  3  1  0
  4  2  1  6
  4  5  1  0
  5  6  1  0
  6  7  1  0
  7  8  1  0
  8  9  2  0
  9 10  1  0
 10 11  1  0
 11 12  2  0
 12 13  1  0
 13 14  1  0
 13 15  2  0
 15 16  1  0
 16 17  1  0
  7 18  2  0
 18  4  1  0
 17  8  1  0
 16 10  2  0
M  END
>  <compound_id>  (106) 
CX02

>  <name>  (106) 
benzimidazole luciferin

>  <structural_class>  (106) 
Heterocycle-exchanged core luciferins

>  <subfamily>  (106) 
benzimidazole

>  <smiles>  (106) 
O=C(O)[C@H]1CSC(c2nc3ccc(O)cc3[nH]2)=N1

>  <inchi>  (106) 
InChI=1S/C11H9N3O3S/c15-5-1-2-6-7(3-5)13-9(12-6)10-14-8(4-18-10)11(16)17/h1-3,8,15H,4H2,(H,12,13)(H,16,17)/t8-/m1/s1

>  <inchikey>  (106) 
YFONIHMRCZETGE-MRVPVSSYSA-N

>  <molecular_formula>  (106) 
C11H9N3O3S

>  <iupac_name>  (106) 
(S)-2-(6-Hydroxy-2-benzimidazolyl)-2-thiazoline-4-carboxylic acid

$$$$
CX03
     RDKit          2D

 18 20  0  0  0  0  0  0  0  0999 V2000
   -6.3914    0.0591    0.0000 O   0  0  0  0  0  0  0  0  0  0  0  0
   -5.0796    0.7866    0.0000 C   0  0  0  0  0  0  0  0  0  0  0  0
   -5.0538    2.2864    0.0000 O   0  0  0  0  0  0  0  0  0  0  0  0
   -3.7937    0.0143    0.0000 C   0  0  0  0  0  0  0  0  0  0  0  0
   -3.6626   -1.4800    0.0000 C   0  0  0  0  0  0  0  0  0  0  0  0
   -2.2010   -1.8171    0.0000 N   0  0  0  0  0  0  0  0  0  0  0  0
   -1.4287   -0.5311    0.0000 C   0  0  0  0  0  0  0  0  0  0  0  0
    0.0656   -0.4001    0.0000 C   0  0  0  0  0  0  0  0  0  0  0  0
    1.0499   -1.5319    0.0000 N   0  0  0  0  0  0  0  0  0  0  0  0
    2.4305   -0.9455    0.0000 C   0  0  0  0  0  0  0  0  0  0  0  0
    3.7901   -1.5791    0.0000 C   0  0  0  0  0  0  0  0  0  0  0  0
    5.0187   -0.7185    0.0000 C   0  0  0  0  0  0  0  0  0  0  0  0
    4.8876    0.7758    0.0000 C   0  0  0  0  0  0  0  0  0  0  0  0
    6.1161    1.6364    0.0000 O   0  0  0  0  0  0  0  0  0  0  0  0
    3.5280    1.4094    0.0000 C   0  0  0  0  0  0  0  0  0  0  0  0
    2.2995    0.5488    0.0000 C   0  0  0  0  0  0  0  0  0  0  0  0
    0.8378    0.8859    0.0000 N   0  0  0  0  0  0  0  0  0  0  0  0
   -2.4131    0.6007    0.0000 N   0  0  0  0  0  0  0  0  0  0  0  0
  1  2  2  0
  2  3  1  0
  4  2  1  6
  4  5  1  0
  5  6  1  0
  6  7  1  0
  7  8  1  0
  8  9  2  0
  9 10  1  0
 10 11  1  0
 11 12  2  0
 12 13  1  0
 13 14  1  0
 13 15  2  0
 15 16  1  0
 16 17  1  0
  7 18  2  0
 18  4  1  0
 17  8  1  0
 16 10  2  0
M  END
>  <compound_id>  (107) 
CX03

>  <name>  (107) 
Benzimidazole-imidazoline luciferin

>  <structural_class>  (107) 
Heterocycle-exchanged core luciferins

>  <subfamily>  (107) 
benzimidazole

>  <smiles>  (107) 
O=C(O)[C@H]1CNC(c2nc3ccc(O)cc3[nH]2)=N1

>  <inchi>  (107) 
InChI=1S/C11H10N4O3/c16-5-1-2-6-7(3-5)14-10(13-6)9-12-4-8(15-9)11(17)18/h1-3,8,16H,4H2,(H,12,15)(H,13,14)(H,17,18)/t8-/m1/s1

>  <inchikey>  (107) 
PAIRBFOXUZXGDG-MRVPVSSYSA-N

>  <molecular_formula>  (107) 
C11H10N4O3

>  <iupac_name>  (107) 
(R)-2-(6-Hydroxy-2-benzimidazolyl)-2-imidazoline-4-carboxylic acid

$$$$
CX04
     RDKit          2D

 18 20  0  0  0  0  0  0  0  0999 V2000
   -6.3914    0.0591    0.0000 O   0  0  0  0  0  0  0  0  0  0  0  0
   -5.0796    0.7866    0.0000 C   0  0  0  0  0  0  0  0  0  0  0  0
   -5.0538    2.2864    0.0000 O   0  0  0  0  0  0  0  0  0  0  0  0
   -3.7937    0.0143    0.0000 C   0  0  0  0  0  0  0  0  0  0  0  0
   -3.6626   -1.4800    0.0000 C   0  0  0  0  0  0  0  0  0  0  0  0
   -2.2010   -1.8171    0.0000 S   0  0  0  0  0  0  0  0  0  0  0  0
   -1.4287   -0.5311    0.0000 C   0  0  0  0  0  0  0  0  0  0  0  0
    0.0656   -0.4001    0.0000 C   0  0  0  0  0  0  0  0  0  0  0  0
    1.0499   -1.5319    0.0000 C   0  0  0  0  0  0  0  0  0  0  0  0
    2.4305   -0.9455    0.0000 C   0  0  0  0  0  0  0  0  0  0  0  0
    3.7901   -1.5791    0.0000 C   0  0  0  0  0  0  0  0  0  0  0  0
    5.0187   -0.7185    0.0000 C   0  0  0  0  0  0  0  0  0  0  0  0
    4.8876    0.7758    0.0000 C   0  0  0  0  0  0  0  0  0  0  0  0
    6.1161    1.6364    0.0000 O   0  0  0  0  0  0  0  0  0  0  0  0
    3.5280    1.4094    0.0000 C   0  0  0  0  0  0  0  0  0  0  0  0
    2.2995    0.5488    0.0000 C   0  0  0  0  0  0  0  0  0  0  0  0
    0.8378    0.8859    0.0000 O   0  0  0  0  0  0  0  0  0  0  0  0
   -2.4131    0.6007    0.0000 N   0  0  0  0  0  0  0  0  0  0  0  0
  1  2  2  0
  2  3  1  0
  4  2  1  6
  4  5  1  0
  5  6  1  0
  6  7  1  0
  7  8  1  0
  8  9  2  0
  9 10  1  0
 10 11  1  0
 11 12  2  0
 12 13  1  0
 13 14  1  0
 13 15  2  0
 15 16  1  0
 16 17  1  0
  7 18  2  0
 18  4  1  0
 17  8  1  0
 16 10  2  0
M  END
>  <compound_id>  (108) 
CX04

>  <name>  (108) 
benzofuran luciferin

>  <structural_class>  (108) 
Heterocycle-exchanged core luciferins

>  <subfamily>  (108) 
benzofuran

>  <smiles>  (108) 
O=C(O)[C@H]1CSC(c2cc3ccc(O)cc3o2)=N1

>  <inchi>  (108) 
InChI=1S/C12H9NO4S/c14-7-2-1-6-3-10(17-9(6)4-7)11-13-8(5-18-11)12(15)16/h1-4,8,14H,5H2,(H,15,16)/t8-/m1/s1

>  <inchikey>  (108) 
FPVBHCWVEXUKIX-MRVPVSSYSA-N

>  <molecular_formula>  (108) 
C12H9NO4S

>  <iupac_name>  (108) 
2-(6-Hydroxybenzofuran-2-yl)-4,5-dihydrothiazole-4-carboxylic acid

$$$$
CX05
     RDKit          2D

 18 20  0  0  0  0  0  0  0  0999 V2000
   -6.3914    0.0591    0.0000 O   0  0  0  0  0  0  0  0  0  0  0  0
   -5.0796    0.7866    0.0000 C   0  0  0  0  0  0  0  0  0  0  0  0
   -5.0538    2.2864    0.0000 O   0  0  0  0  0  0  0  0  0  0  0  0
   -3.7937    0.0143    0.0000 C   0  0  0  0  0  0  0  0  0  0  0  0
   -3.6626   -1.4800    0.0000 C   0  0  0  0  0  0  0  0  0  0  0  0
   -2.2010   -1.8171    0.0000 S   0  0  0  0  0  0  0  0  0  0  0  0
   -1.4287   -0.5311    0.0000 C   0  0  0  0  0  0  0  0  0  0  0  0
    0.0656   -0.4001    0.0000 C   0  0  0  0  0  0  0  0  0  0  0  0
    1.0499   -1.5319    0.0000 C   0  0  0  0  0  0  0  0  0  0  0  0
    2.4305   -0.9455    0.0000 C   0  0  0  0  0  0  0  0  0  0  0  0
    3.7901   -1.5791    0.0000 C   0  0  0  0  0  0  0  0  0  0  0  0
    5.0187   -0.7185    0.0000 C   0  0  0  0  0  0  0  0  0  0  0  0
    4.8876    0.7758    0.0000 C   0  0  0  0  0  0  0  0  0  0  0  0
    6.1161    1.6364    0.0000 O   0  0  0  0  0  0  0  0  0  0  0  0
    3.5280    1.4094    0.0000 C   0  0  0  0  0  0  0  0  0  0  0  0
    2.2995    0.5488    0.0000 C   0  0  0  0  0  0  0  0  0  0  0  0
    0.8378    0.8859    0.0000 S   0  0  0  0  0  0  0  0  0  0  0  0
   -2.4131    0.6007    0.0000 N   0  0  0  0  0  0  0  0  0  0  0  0
  1  2  2  0
  2  3  1  0
  4  2  1  6
  4  5  1  0
  5  6  1  0
  6  7  1  0
  7  8  1  0
  8  9  2  0
  9 10  1  0
 10 11  1  0
 11 12  2  0
 12 13  1  0
 13 14  1  0
 13 15  2  0
 15 16  1  0
 16 17  1  0
  7 18  2  0
 18  4  1  0
 17  8  1  0
 16 10  2  0
M  END
>  <compound_id>  (109) 
CX05

>  <name>  (109) 
benzothiophene luciferin

>  <structural_class>  (109) 
Heterocycle-exchanged core luciferins

>  <subfamily>  (109) 
benzothiophene

>  <smiles>  (109) 
O=C(O)[C@H]1CSC(c2cc3ccc(O)cc3s2)=N1

>  <inchi>  (109) 
InChI=1S/C12H9NO3S2/c14-7-2-1-6-3-10(18-9(6)4-7)11-13-8(5-17-11)12(15)16/h1-4,8,14H,5H2,(H,15,16)/t8-/m1/s1

>  <inchikey>  (109) 
YZIZERPEAKQWHH-MRVPVSSYSA-N

>  <molecular_formula>  (109) 
C12H9NO3S2

>  <iupac_name>  (109) 
2-(6-Hydroxybenzothiophen-2-yl)-4,5-dihydrothiazole-4-carboxylic acid

$$$$
CX06
     RDKit          2D

 18 20  0  0  0  0  0  0  0  0999 V2000
   -6.3914    0.0591    0.0000 O   0  0  0  0  0  0  0  0  0  0  0  0
   -5.0796    0.7866    0.0000 C   0  0  0  0  0  0  0  0  0  0  0  0
   -5.0538    2.2864    0.0000 O   0  0  0  0  0  0  0  0  0  0  0  0
   -3.7937    0.0143    0.0000 C   0  0  0  0  0  0  0  0  0  0  0  0
   -3.6626   -1.4800    0.0000 C   0  0  0  0  0  0  0  0  0  0  0  0
   -2.2010   -1.8171    0.0000 S   0  0  0  0  0  0  0  0  0  0  0  0
   -1.4287   -0.5311    0.0000 C   0  0  0  0  0  0  0  0  0  0  0  0
    0.0656   -0.4001    0.0000 C   0  0  0  0  0  0  0  0  0  0  0  0
    1.0499   -1.5319    0.0000 N   0  0  0  0  0  0  0  0  0  0  0  0
    2.4305   -0.9455    0.0000 C   0  0  0  0  0  0  0  0  0  0  0  0
    3.7901   -1.5791    0.0000 C   0  0  0  0  0  0  0  0  0  0  0  0
    5.0187   -0.7185    0.0000 C   0  0  0  0  0  0  0  0  0  0  0  0
    4.8876    0.7758    0.0000 C   0  0  0  0  0  0  0  0  0  0  0  0
    6.1161    1.6364    0.0000 O   0  0  0  0  0  0  0  0  0  0  0  0
    3.5280    1.4094    0.0000 C   0  0  0  0  0  0  0  0  0  0  0  0
    2.2995    0.5488    0.0000 C   0  0  0  0  0  0  0  0  0  0  0  0
    0.8378    0.8859    0.0000 O   0  0  0  0  0  0  0  0  0  0  0  0
   -2.4131    0.6007    0.0000 N   0  0  0  0  0  0  0  0  0  0  0  0
  1  2  2  0
  2  3  1  0
  4  2  1  6
  4  5  1  0
  5  6  1  0
  6  7  1  0
  7  8  1  0
  8  9  2  0
  9 10  1  0
 10 11  1  0
 11 12  2  0
 12 13  1  0
 13 14  1  0
 13 15  2  0
 15 16  1  0
 16 17  1  0
  7 18  2  0
 18  4  1  0
 17  8  1  0
 16 10  2  0
M  END
>  <compound_id>  (110) 
CX06

>  <name>  (110) 
benzoxazole luciferin

>  <structural_class>  (110) 
Heterocycle-exchanged core luciferins

>  <subfamily>  (110) 
benzoxazole

>  <smiles>  (110) 
O=C(O)[C@H]1CSC(c2nc3ccc(O)cc3o2)=N1

>  <inchi>  (110) 
InChI=1S/C11H8N2O4S/c14-5-1-2-6-8(3-5)17-9(12-6)10-13-7(4-18-10)11(15)16/h1-3,7,14H,4H2,(H,15,16)/t7-/m1/s1

>  <inchikey>  (110) 
DGIVOEDYGNUZIB-SSDOTTSWSA-N

>  <molecular_formula>  (110) 
C11H8N2O4S

>  <iupac_name>  (110) 
2-(6-Hydroxybenzooxazol-2-yl)-4,5-dihydrothiazole-4-carboxylic acid

$$$$
CX07
     RDKit          2D

 19 21  0  0  0  0  0  0  0  0999 V2000
   -6.5372    0.3913    0.0000 O   0  0  0  0  0  0  0  0  0  0  0  0
   -5.1591    0.9837    0.0000 C   0  0  0  0  0  0  0  0  0  0  0  0
   -4.9832    2.4734    0.0000 O   0  0  0  0  0  0  0  0  0  0  0  0
   -3.9570    0.0866    0.0000 C   0  0  0  0  0  0  0  0  0  0  0  0
   -3.9763   -1.4133    0.0000 C   0  0  0  0  0  0  0  0  0  0  0  0
   -2.5558   -1.8951    0.0000 S   0  0  0  0  0  0  0  0  0  0  0  0
   -1.6586   -0.6930    0.0000 C   0  0  0  0  0  0  0  0  0  0  0  0
   -0.1587   -0.7123    0.0000 C   0  0  0  0  0  0  0  0  0  0  0  0
    0.5746   -2.0208    0.0000 C   0  0  0  0  0  0  0  0  0  0  0  0
    2.0744   -2.0401    0.0000 C   0  0  0  0  0  0  0  0  0  0  0  0
    2.8411   -0.7508    0.0000 C   0  0  0  0  0  0  0  0  0  0  0  0
    4.3409   -0.7701    0.0000 C   0  0  0  0  0  0  0  0  0  0  0  0
    5.1075    0.5192    0.0000 C   0  0  0  0  0  0  0  0  0  0  0  0
    6.6074    0.5000    0.0000 O   0  0  0  0  0  0  0  0  0  0  0  0
    4.3743    1.8278    0.0000 C   0  0  0  0  0  0  0  0  0  0  0  0
    2.8744    1.8471    0.0000 C   0  0  0  0  0  0  0  0  0  0  0  0
    2.1078    0.5578    0.0000 C   0  0  0  0  0  0  0  0  0  0  0  0
    0.6079    0.5770    0.0000 N   0  0  0  0  0  0  0  0  0  0  0  0
   -2.5246    0.5317    0.0000 N   0  0  0  0  0  0  0  0  0  0  0  0
  1  2  2  0
  2  3  1  0
  4  2  1  6
  4  5  1  0
  5  6  1  0
  6  7  1  0
  7  8  1  0
  8  9  2  0
  9 10  1  0
 10 11  2  0
 11 12  1  0
 12 13  2  0
 13 14  1  0
 13 15  1  0
 15 16  2  0
 16 17  1  0
 17 18  2  0
  7 19  2  0
 19  4  1  0
 18  8  1  0
 17 11  1  0
M  END
>  <compound_id>  (111) 
CX07

>  <name>  (111) 
D-quinolylluciferin

>  <structural_class>  (111) 
Heterocycle-exchanged core luciferins

>  <subfamily>  (111) 
quinoline

>  <smiles>  (111) 
O=C(O)[C@H]1CSC(c2ccc3cc(O)ccc3n2)=N1

>  <inchi>  (111) 
InChI=1S/C13H10N2O3S/c16-8-2-4-9-7(5-8)1-3-10(14-9)12-15-11(6-19-12)13(17)18/h1-5,11,16H,6H2,(H,17,18)/t11-/m1/s1

>  <inchikey>  (111) 
YLOLPLXXFZFHFD-LLVKDONJSA-N

>  <molecular_formula>  (111) 
C13H10N2O3S

>  <iupac_name>  (111) 
(4S)-2-(6-hydroxyquinolin-2-yl)-4,5-dihydro-1,3-thiazole-4-carboxylic acid

$$$$
CX08
     RDKit          2D

 18 20  0  0  0  0  0  0  0  0999 V2000
   -6.3914    0.0591    0.0000 O   0  0  0  0  0  0  0  0  0  0  0  0
   -5.0796    0.7866    0.0000 C   0  0  0  0  0  0  0  0  0  0  0  0
   -5.0538    2.2864    0.0000 O   0  0  0  0  0  0  0  0  0  0  0  0
   -3.7937    0.0143    0.0000 C   0  0  0  0  0  0  0  0  0  0  0  0
   -3.6626   -1.4800    0.0000 C   0  0  0  0  0  0  0  0  0  0  0  0
   -2.2010   -1.8171    0.0000 S   0  0  0  0  0  0  0  0  0  0  0  0
   -1.4287   -0.5311    0.0000 C   0  0  0  0  0  0  0  0  0  0  0  0
    0.0656   -0.4001    0.0000 C   0  0  0  0  0  0  0  0  0  0  0  0
    1.0499   -1.5319    0.0000 C   0  0  0  0  0  0  0  0  0  0  0  0
    2.4305   -0.9455    0.0000 C   0  0  0  0  0  0  0  0  0  0  0  0
    3.7901   -1.5791    0.0000 C   0  0  0  0  0  0  0  0  0  0  0  0
    5.0187   -0.7185    0.0000 C   0  0  0  0  0  0  0  0  0  0  0  0
    4.8876    0.7758    0.0000 C   0  0  0  0  0  0  0  0  0  0  0  0
    6.1161    1.6364    0.0000 O   0  0  0  0  0  0  0  0  0  0  0  0
    3.5280    1.4094    0.0000 C   0  0  0  0  0  0  0  0  0  0  0  0
    2.2995    0.5488    0.0000 C   0  0  0  0  0  0  0  0  0  0  0  0
    0.8378    0.8859    0.0000 N   0  0  0  0  0  0  0  0  0  0  0  0
   -2.4131    0.6007    0.0000 N   0  0  0  0  0  0  0  0  0  0  0  0
  1  2  2  0
  2  3  1  0
  4  2  1  6
  4  5  1  0
  5  6  1  0
  6  7  1  0
  7  8  1  0
  8  9  2  0
  9 10  1  0
 10 11  1  0
 11 12  2  0
 12 13  1  0
 13 14  1  0
 13 15  2  0
 15 16  1  0
 16 17  1  0
  7 18  2  0
 18  4  1  0
 17  8  1  0
 16 10  2  0
M  END
>  <compound_id>  (112) 
CX08

>  <name>  (112) 
indole luciferin

>  <structural_class>  (112) 
Heterocycle-exchanged core luciferins

>  <subfamily>  (112) 
indole

>  <smiles>  (112) 
O=C(O)[C@H]1CSC(c2cc3ccc(O)cc3[nH]2)=N1

>  <inchi>  (112) 
InChI=1S/C12H10N2O3S/c15-7-2-1-6-3-9(13-8(6)4-7)11-14-10(5-18-11)12(16)17/h1-4,10,13,15H,5H2,(H,16,17)/t10-/m1/s1

>  <inchikey>  (112) 
ALNQLJREMKKNHK-SNVBAGLBSA-N

>  <molecular_formula>  (112) 
C12H10N2O3S

>  <iupac_name>  (112) 
2-(6-Hydroxy-1H-indol-2-yl)-4,5-dihydrothiazole-4-carboxylic acid

$$$$
CX09
     RDKit          2D

 19 21  0  0  0  0  0  0  0  0999 V2000
   -6.5372    0.3913    0.0000 O   0  0  0  0  0  0  0  0  0  0  0  0
   -5.1591    0.9837    0.0000 C   0  0  0  0  0  0  0  0  0  0  0  0
   -4.9832    2.4734    0.0000 O   0  0  0  0  0  0  0  0  0  0  0  0
   -3.9570    0.0866    0.0000 C   0  0  0  0  0  0  0  0  0  0  0  0
   -3.9763   -1.4133    0.0000 C   0  0  0  0  0  0  0  0  0  0  0  0
   -2.5558   -1.8951    0.0000 S   0  0  0  0  0  0  0  0  0  0  0  0
   -1.6586   -0.6930    0.0000 C   0  0  0  0  0  0  0  0  0  0  0  0
   -0.1587   -0.7123    0.0000 C   0  0  0  0  0  0  0  0  0  0  0  0
    0.5746   -2.0208    0.0000 C   0  0  0  0  0  0  0  0  0  0  0  0
    2.0744   -2.0401    0.0000 C   0  0  0  0  0  0  0  0  0  0  0  0
    2.8411   -0.7508    0.0000 C   0  0  0  0  0  0  0  0  0  0  0  0
    4.3409   -0.7701    0.0000 C   0  0  0  0  0  0  0  0  0  0  0  0
    5.1075    0.5192    0.0000 C   0  0  0  0  0  0  0  0  0  0  0  0
    6.6074    0.5000    0.0000 O   0  0  0  0  0  0  0  0  0  0  0  0
    4.3743    1.8278    0.0000 C   0  0  0  0  0  0  0  0  0  0  0  0
    2.8744    1.8471    0.0000 C   0  0  0  0  0  0  0  0  0  0  0  0
    2.1078    0.5578    0.0000 C   0  0  0  0  0  0  0  0  0  0  0  0
    0.6079    0.5770    0.0000 C   0  0  0  0  0  0  0  0  0  0  0  0
   -2.5246    0.5317    0.0000 N   0  0  0  0  0  0  0  0  0  0  0  0
  1  2  2  0
  2  3  1  0
  4  2  1  1
  4  5  1  0
  5  6  1  0
  6  7  1  0
  7  8  1  0
  8  9  2  0
  9 10  1  0
 10 11  2  0
 11 12  1  0
 12 13  2  0
 13 14  1  0
 13 15  1  0
 15 16  2  0
 16 17  1  0
 17 18  2  0
  7 19  2  0
 19  4  1  0
 18  8  1  0
 17 11  1  0
M  END
>  <compound_id>  (113) 
CX09

>  <name>  (113) 
L-Naphthylluciferin

>  <structural_class>  (113) 
Heterocycle-exchanged core luciferins

>  <subfamily>  (113) 
naphthalene

>  <smiles>  (113) 
O=C(O)[C@@H]1CSC(c2ccc3cc(O)ccc3c2)=N1

>  <inchi>  (113) 
InChI=1S/C14H11NO3S/c16-11-4-3-8-5-10(2-1-9(8)6-11)13-15-12(7-19-13)14(17)18/h1-6,12,16H,7H2,(H,17,18)/t12-/m0/s1

>  <inchikey>  (113) 
DYBTWQQNDQLASO-LBPRGKRZSA-N

>  <molecular_formula>  (113) 
C14H11NO3S

>  <iupac_name>  (113) 
(4R)-2-(6-hydroxynaphthalen-2-yl)-4,5-dihydro-1,3-thiazole-4-carboxylic acid

$$$$
CX10
     RDKit          2D

 19 21  0  0  0  0  0  0  0  0999 V2000
   -6.5372    0.3913    0.0000 O   0  0  0  0  0  0  0  0  0  0  0  0
   -5.1591    0.9837    0.0000 C   0  0  0  0  0  0  0  0  0  0  0  0
   -4.9832    2.4734    0.0000 O   0  0  0  0  0  0  0  0  0  0  0  0
   -3.9570    0.0866    0.0000 C   0  0  0  0  0  0  0  0  0  0  0  0
   -3.9763   -1.4133    0.0000 C   0  0  0  0  0  0  0  0  0  0  0  0
   -2.5558   -1.8951    0.0000 S   0  0  0  0  0  0  0  0  0  0  0  0
   -1.6586   -0.6930    0.0000 C   0  0  0  0  0  0  0  0  0  0  0  0
   -0.1587   -0.7123    0.0000 C   0  0  0  0  0  0  0  0  0  0  0  0
    0.5746   -2.0208    0.0000 C   0  0  0  0  0  0  0  0  0  0  0  0
    2.0744   -2.0401    0.0000 C   0  0  0  0  0  0  0  0  0  0  0  0
    2.8411   -0.7508    0.0000 C   0  0  0  0  0  0  0  0  0  0  0  0
    4.3409   -0.7701    0.0000 C   0  0  0  0  0  0  0  0  0  0  0  0
    5.1075    0.5192    0.0000 C   0  0  0  0  0  0  0  0  0  0  0  0
    6.6074    0.5000    0.0000 O   0  0  0  0  0  0  0  0  0  0  0  0
    4.3743    1.8278    0.0000 C   0  0  0  0  0  0  0  0  0  0  0  0
    2.8744    1.8471    0.0000 C   0  0  0  0  0  0  0  0  0  0  0  0
    2.1078    0.5578    0.0000 C   0  0  0  0  0  0  0  0  0  0  0  0
    0.6079    0.5770    0.0000 N   0  0  0  0  0  0  0  0  0  0  0  0
   -2.5246    0.5317    0.0000 N   0  0  0  0  0  0  0  0  0  0  0  0
  1  2  2  0
  2  3  1  0
  4  2  1  1
  4  5  1  0
  5  6  1  0
  6  7  1  0
  7  8  1  0
  8  9  2  0
  9 10  1  0
 10 11  2  0
 11 12  1  0
 12 13  2  0
 13 14  1  0
 13 15  1  0
 15 16  2  0
 16 17  1  0
 17 18  2  0
  7 19  2  0
 19  4  1  0
 18  8  1  0
 17 11  1  0
M  END
>  <compound_id>  (114) 
CX10

>  <name>  (114) 
L-Quinolylluciferin

>  <structural_class>  (114) 
Heterocycle-exchanged core luciferins

>  <subfamily>  (114) 
quinoline

>  <smiles>  (114) 
O=C(O)[C@@H]1CSC(c2ccc3cc(O)ccc3n2)=N1

>  <inchi>  (114) 
InChI=1S/C13H10N2O3S/c16-8-2-4-9-7(5-8)1-3-10(14-9)12-15-11(6-19-12)13(17)18/h1-5,11,16H,6H2,(H,17,18)/t11-/m0/s1

>  <inchikey>  (114) 
YLOLPLXXFZFHFD-NSHDSACASA-N

>  <molecular_formula>  (114) 
C13H10N2O3S

>  <iupac_name>  (114) 
(4R)-2-(6-hydroxyquinolin-2-yl)-4,5-dihydro-1,3-thiazole-4-carboxylic acid

$$$$
CX11
     RDKit          2D

 19 21  0  0  0  0  0  0  0  0999 V2000
    0.7006    2.8298    0.0000 C   0  0  0  0  0  0  0  0  0  0  0  0
    1.0246    1.3653    0.0000 N   0  0  0  0  0  0  0  0  0  0  0  0
    0.0302    0.2422    0.0000 C   0  0  0  0  0  0  0  0  0  0  0  0
   -1.4628    0.3867    0.0000 C   0  0  0  0  0  0  0  0  0  0  0  0
   -2.4572   -0.7363    0.0000 N   0  0  0  0  0  0  0  0  0  0  0  0
   -3.8326   -0.1376    0.0000 C   0  0  0  0  0  0  0  0  0  0  0  0
   -5.1253   -0.8984    0.0000 C   0  0  0  0  0  0  0  0  0  0  0  0
   -5.1129   -2.3983    0.0000 O   0  0  0  0  0  0  0  0  0  0  0  0
   -6.4306   -0.1592    0.0000 O   0  0  0  0  0  0  0  0  0  0  0  0
   -3.6882    1.3554    0.0000 C   0  0  0  0  0  0  0  0  0  0  0  0
   -2.2236    1.6794    0.0000 S   0  0  0  0  0  0  0  0  0  0  0  0
    0.7910   -1.0505    0.0000 N   0  0  0  0  0  0  0  0  0  0  0  0
    2.2555   -0.7265    0.0000 C   0  0  0  0  0  0  0  0  0  0  0  0
    3.4763   -1.5981    0.0000 C   0  0  0  0  0  0  0  0  0  0  0  0
    4.8415   -0.9766    0.0000 C   0  0  0  0  0  0  0  0  0  0  0  0
    6.0623   -1.8482    0.0000 O   0  0  0  0  0  0  0  0  0  0  0  0
    4.9860    0.5164    0.0000 C   0  0  0  0  0  0  0  0  0  0  0  0
    3.7652    1.3880    0.0000 C   0  0  0  0  0  0  0  0  0  0  0  0
    2.3999    0.7665    0.0000 C   0  0  0  0  0  0  0  0  0  0  0  0
  1  2  1  0
  2  3  1  0
  3  4  1  0
  4  5  2  0
  5  6  1  0
  6  7  1  1
  7  8  2  0
  7  9  1  0
  6 10  1  0
 10 11  1  0
  3 12  2  0
 12 13  1  0
 13 14  1  0
 14 15  2  0
 15 16  1  0
 15 17  1  0
 17 18  2  0
 18 19  1  0
 19  2  1  0
 11  4  1  0
 19 13  2  0
M  END
>  <compound_id>  (115) 
CX11

>  <name>  (115) 
N-Methylbenzimidazole luciferin

>  <structural_class>  (115) 
Heterocycle-exchanged core luciferins

>  <subfamily>  (115) 
N-methylbenzimidazole

>  <smiles>  (115) 
Cn1c(C2=N[C@@H](C(=O)O)CS2)nc2cc(O)ccc21

>  <inchi>  (115) 
InChI=1S/C12H11N3O3S/c1-15-9-3-2-6(16)4-7(9)13-10(15)11-14-8(5-19-11)12(17)18/h2-4,8,16H,5H2,1H3,(H,17,18)/t8-/m1/s1

>  <inchikey>  (115) 
NJAVAOWOLIFEKY-MRVPVSSYSA-N

>  <molecular_formula>  (115) 
C12H11N3O3S

>  <iupac_name>  (115) 
(S)-2-(5-Hydroxy-1-methylbenzimidazol-2-yl)-2-thiazoline-4-carboxylic acid

$$$$
CX12
     RDKit          2D

 19 21  0  0  0  0  0  0  0  0999 V2000
   -6.6074    0.5000    0.0000 N   0  0  0  0  0  0  0  0  0  0  0  0
   -5.1075    0.5192    0.0000 C   0  0  0  0  0  0  0  0  0  0  0  0
   -4.3743    1.8278    0.0000 C   0  0  0  0  0  0  0  0  0  0  0  0
   -2.8744    1.8471    0.0000 C   0  0  0  0  0  0  0  0  0  0  0  0
   -2.1078    0.5578    0.0000 C   0  0  0  0  0  0  0  0  0  0  0  0
   -0.6079    0.5770    0.0000 C   0  0  0  0  0  0  0  0  0  0  0  0
    0.1587   -0.7123    0.0000 C   0  0  0  0  0  0  0  0  0  0  0  0
    1.6586   -0.6930    0.0000 C   0  0  0  0  0  0  0  0  0  0  0  0
    2.5246    0.5317    0.0000 N   0  0  0  0  0  0  0  0  0  0  0  0
    3.9570    0.0866    0.0000 C   0  0  0  0  0  0  0  0  0  0  0  0
    5.1591    0.9837    0.0000 C   0  0  0  0  0  0  0  0  0  0  0  0
    4.9832    2.4734    0.0000 O   0  0  0  0  0  0  0  0  0  0  0  0
    6.5372    0.3913    0.0000 O   0  0  0  0  0  0  0  0  0  0  0  0
    3.9763   -1.4133    0.0000 C   0  0  0  0  0  0  0  0  0  0  0  0
    2.5558   -1.8951    0.0000 S   0  0  0  0  0  0  0  0  0  0  0  0
   -0.5746   -2.0208    0.0000 C   0  0  0  0  0  0  0  0  0  0  0  0
   -2.0744   -2.0401    0.0000 C   0  0  0  0  0  0  0  0  0  0  0  0
   -2.8411   -0.7508    0.0000 C   0  0  0  0  0  0  0  0  0  0  0  0
   -4.3409   -0.7701    0.0000 C   0  0  0  0  0  0  0  0  0  0  0  0
  1  2  1  0
  2  3  1  0
  3  4  2  0
  4  5  1  0
  5  6  2  0
  6  7  1  0
  7  8  1  0
  8  9  2  0
  9 10  1  0
 10 11  1  1
 11 12  2  0
 11 13  1  0
 10 14  1  0
 14 15  1  0
  7 16  2  0
 16 17  1  0
 17 18  2  0
 18 19  1  0
 19  2  2  0
 18  5  1  0
 15  8  1  0
M  END
>  <compound_id>  (116) 
CX12

>  <name>  (116) 
NAL

>  <structural_class>  (116) 
Heterocycle-exchanged core luciferins

>  <subfamily>  (116) 
naphthalene

>  <smiles>  (116) 
Nc1ccc2cc(C3=N[C@@H](C(=O)O)CS3)ccc2c1

>  <inchi>  (116) 
InChI=1S/C14H12N2O2S/c15-11-4-3-8-5-10(2-1-9(8)6-11)13-16-12(7-19-13)14(17)18/h1-6,12H,7,15H2,(H,17,18)/t12-/m1/s1

>  <inchikey>  (116) 
OEVODZVUHNDRET-GFCCVEGCSA-N

>  <molecular_formula>  (116) 
C14H12N2O2S

>  <iupac_name>  (116) 
(S)-2-(6-Aminonaphthalen-2-yl)-4,5-dihydrothiazole-4-carboxylic acid

$$$$
CX13
     RDKit          2D

 19 21  0  0  0  0  0  0  0  0999 V2000
   -6.5372    0.3913    0.0000 O   0  0  0  0  0  0  0  0  0  0  0  0
   -5.1591    0.9837    0.0000 C   0  0  0  0  0  0  0  0  0  0  0  0
   -4.9832    2.4734    0.0000 O   0  0  0  0  0  0  0  0  0  0  0  0
   -3.9570    0.0866    0.0000 C   0  0  0  0  0  0  0  0  0  0  0  0
   -3.9763   -1.4133    0.0000 C   0  0  0  0  0  0  0  0  0  0  0  0
   -2.5558   -1.8951    0.0000 S   0  0  0  0  0  0  0  0  0  0  0  0
   -1.6586   -0.6930    0.0000 C   0  0  0  0  0  0  0  0  0  0  0  0
   -0.1587   -0.7123    0.0000 C   0  0  0  0  0  0  0  0  0  0  0  0
    0.5746   -2.0208    0.0000 C   0  0  0  0  0  0  0  0  0  0  0  0
    2.0744   -2.0401    0.0000 C   0  0  0  0  0  0  0  0  0  0  0  0
    2.8411   -0.7508    0.0000 C   0  0  0  0  0  0  0  0  0  0  0  0
    4.3409   -0.7701    0.0000 C   0  0  0  0  0  0  0  0  0  0  0  0
    5.1075    0.5192    0.0000 C   0  0  0  0  0  0  0  0  0  0  0  0
    6.6074    0.5000    0.0000 O   0  0  0  0  0  0  0  0  0  0  0  0
    4.3743    1.8278    0.0000 C   0  0  0  0  0  0  0  0  0  0  0  0
    2.8744    1.8471    0.0000 C   0  0  0  0  0  0  0  0  0  0  0  0
    2.1078    0.5578    0.0000 C   0  0  0  0  0  0  0  0  0  0  0  0
    0.6079    0.5770    0.0000 C   0  0  0  0  0  0  0  0  0  0  0  0
   -2.5246    0.5317    0.0000 N   0  0  0  0  0  0  0  0  0  0  0  0
  1  2  2  0
  2  3  1  0
  4  2  1  6
  4  5  1  0
  5  6  1  0
  6  7  1  0
  7  8  1  0
  8  9  2  0
  9 10  1  0
 10 11  2  0
 11 12  1  0
 12 13  2  0
 13 14  1  0
 13 15  1  0
 15 16  2  0
 16 17  1  0
 17 18  2  0
  7 19  2  0
 19  4  1  0
 18  8  1  0
 17 11  1  0
M  END
>  <compound_id>  (117) 
CX13

>  <name>  (117) 
NapLuc

>  <structural_class>  (117) 
Heterocycle-exchanged core luciferins

>  <subfamily>  (117) 
naphthalene

>  <smiles>  (117) 
O=C(O)[C@H]1CSC(c2ccc3cc(O)ccc3c2)=N1

>  <inchi>  (117) 
InChI=1S/C14H11NO3S/c16-11-4-3-8-5-10(2-1-9(8)6-11)13-15-12(7-19-13)14(17)18/h1-6,12,16H,7H2,(H,17,18)/t12-/m1/s1

>  <inchikey>  (117) 
DYBTWQQNDQLASO-GFCCVEGCSA-N

>  <molecular_formula>  (117) 
C14H11NO3S

>  <iupac_name>  (117) 
(4S)-2-(6-hydroxynaphthalen-2-yl)-4,5-dihydro-1,3-thiazole-4-carboxylic acid

$$$$
CX14
     RDKit          2D

 21 23  0  0  0  0  0  0  0  0999 V2000
   -6.7060    1.6124    0.0000 C   0  0  0  0  0  0  0  0  0  0  0  0
   -5.9144    0.3383    0.0000 N   0  0  0  0  0  0  0  0  0  0  0  0
   -6.6221   -0.9843    0.0000 C   0  0  0  0  0  0  0  0  0  0  0  0
   -4.4152    0.3867    0.0000 C   0  0  0  0  0  0  0  0  0  0  0  0
   -3.7075    1.7093    0.0000 C   0  0  0  0  0  0  0  0  0  0  0  0
   -2.2083    1.7577    0.0000 C   0  0  0  0  0  0  0  0  0  0  0  0
   -1.4168    0.4836    0.0000 C   0  0  0  0  0  0  0  0  0  0  0  0
    0.0824    0.5320    0.0000 C   0  0  0  0  0  0  0  0  0  0  0  0
    0.8740   -0.7421    0.0000 C   0  0  0  0  0  0  0  0  0  0  0  0
    2.3732   -0.6937    0.0000 C   0  0  0  0  0  0  0  0  0  0  0  0
    3.2153    0.5477    0.0000 N   0  0  0  0  0  0  0  0  0  0  0  0
    4.6561    0.1305    0.0000 C   0  0  0  0  0  0  0  0  0  0  0  0
    5.8405    1.0509    0.0000 C   0  0  0  0  0  0  0  0  0  0  0  0
    5.6356    2.5368    0.0000 O   0  0  0  0  0  0  0  0  0  0  0  0
    7.2298    0.4853    0.0000 O   0  0  0  0  0  0  0  0  0  0  0  0
    4.7045   -1.3687    0.0000 C   0  0  0  0  0  0  0  0  0  0  0  0
    3.2936   -1.8781    0.0000 S   0  0  0  0  0  0  0  0  0  0  0  0
    0.1663   -2.0647    0.0000 C   0  0  0  0  0  0  0  0  0  0  0  0
   -1.3329   -2.1131    0.0000 C   0  0  0  0  0  0  0  0  0  0  0  0
   -2.1244   -0.8390    0.0000 C   0  0  0  0  0  0  0  0  0  0  0  0
   -3.6236   -0.8874    0.0000 C   0  0  0  0  0  0  0  0  0  0  0  0
  1  2  1  0
  2  3  1  0
  2  4  1  0
  4  5  2  0
  5  6  1  0
  6  7  2  0
  7  8  1  0
  8  9  2  0
  9 10  1  0
 10 11  2  0
 11 12  1  0
 12 13  1  1
 13 14  2  0
 13 15  1  0
 12 16  1  0
 16 17  1  0
  9 18  1  0
 18 19  2  0
 19 20  1  0
 20 21  2  0
 21  4  1  0
 20  7  1  0
 17 10  1  0
M  END
>  <compound_id>  (118) 
CX14

>  <name>  (118) 
NDMAL

>  <structural_class>  (118) 
Heterocycle-exchanged core luciferins

>  <subfamily>  (118) 
naphthalene

>  <smiles>  (118) 
CN(C)c1ccc2cc(C3=N[C@@H](C(=O)O)CS3)ccc2c1

>  <inchi>  (118) 
InChI=1S/C16H16N2O2S/c1-18(2)13-6-5-10-7-12(4-3-11(10)8-13)15-17-14(9-21-15)16(19)20/h3-8,14H,9H2,1-2H3,(H,19,20)/t14-/m1/s1

>  <inchikey>  (118) 
YZBJGOSNMWOVKY-CQSZACIVSA-N

>  <molecular_formula>  (118) 
C16H16N2O2S

>  <iupac_name>  (118) 
(S)-2-(6-(Dimethylamino)naphthalen-2-yl)-4,5-dihydrothiazole-4-carboxylic acid

$$$$
CX15
     RDKit          2D

 23 26  0  0  0  0  0  0  0  0999 V2000
   -7.9518    0.5315    0.0000 O   0  0  0  0  0  0  0  0  0  0  0  0
   -6.5577    1.0850    0.0000 C   0  0  0  0  0  0  0  0  0  0  0  0
   -6.3400    2.5691    0.0000 O   0  0  0  0  0  0  0  0  0  0  0  0
   -5.3813    0.1544    0.0000 C   0  0  0  0  0  0  0  0  0  0  0  0
   -5.4427   -1.3443    0.0000 C   0  0  0  0  0  0  0  0  0  0  0  0
   -4.0363   -1.8658    0.0000 S   0  0  0  0  0  0  0  0  0  0  0  0
   -3.1057   -0.6894    0.0000 C   0  0  0  0  0  0  0  0  0  0  0  0
   -1.6069   -0.7508    0.0000 C   0  0  0  0  0  0  0  0  0  0  0  0
   -0.9107   -2.0795    0.0000 C   0  0  0  0  0  0  0  0  0  0  0  0
    0.5880   -2.1409    0.0000 C   0  0  0  0  0  0  0  0  0  0  0  0
    1.3906   -0.8736    0.0000 C   0  0  0  0  0  0  0  0  0  0  0  0
    2.8893   -0.9350    0.0000 C   0  0  0  0  0  0  0  0  0  0  0  0
    3.6919    0.3323    0.0000 C   0  0  0  0  0  0  0  0  0  0  0  0
    5.1906    0.2709    0.0000 N   0  0  0  0  0  0  0  0  0  0  0  0
    6.1212    1.4473    0.0000 C   0  0  0  0  0  0  0  0  0  0  0  0
    7.5276    0.9258    0.0000 C   0  0  0  0  0  0  0  0  0  0  0  0
    7.4662   -0.5730    0.0000 C   0  0  0  0  0  0  0  0  0  0  0  0
    6.0219   -0.9777    0.0000 C   0  0  0  0  0  0  0  0  0  0  0  0
    2.9957    1.6609    0.0000 C   0  0  0  0  0  0  0  0  0  0  0  0
    1.4969    1.7223    0.0000 C   0  0  0  0  0  0  0  0  0  0  0  0
    0.6944    0.4550    0.0000 C   0  0  0  0  0  0  0  0  0  0  0  0
   -0.8044    0.5164    0.0000 C   0  0  0  0  0  0  0  0  0  0  0  0
   -3.9369    0.5592    0.0000 N   0  0  0  0  0  0  0  0  0  0  0  0
  1  2  2  0
  2  3  1  0
  4  2  1  6
  4  5  1  0
  5  6  1  0
  6  7  1  0
  7  8  1  0
  8  9  1  0
  9 10  2  0
 10 11  1  0
 11 12  2  0
 12 13  1  0
 13 14  1  0
 14 15  1  0
 15 16  1  0
 16 17  1  0
 17 18  1  0
 13 19  2  0
 19 20  1  0
 20 21  2  0
 21 22  1  0
  7 23  2  0
 23  4  1  0
 22  8  2  0
 21 11  1  0
 18 14  1  0
M  END
>  <compound_id>  (119) 
CX15

>  <name>  (119) 
NPAL

>  <structural_class>  (119) 
Heterocycle-exchanged core luciferins

>  <subfamily>  (119) 
naphthalene

>  <smiles>  (119) 
O=C(O)[C@H]1CSC(c2ccc3cc(N4CCCC4)ccc3c2)=N1

>  <inchi>  (119) 
InChI=1S/C18H18N2O2S/c21-18(22)16-11-23-17(19-16)14-4-3-13-10-15(6-5-12(13)9-14)20-7-1-2-8-20/h3-6,9-10,16H,1-2,7-8,11H2,(H,21,22)/t16-/m1/s1

>  <inchikey>  (119) 
BCWMBECYDFSVAO-MRXNPFEDSA-N

>  <molecular_formula>  (119) 
C18H18N2O2S

>  <iupac_name>  (119) 
(S)-2-(6-(Pyrrolidin-1-yl)naphthalen-2-yl)-4,5-dihydrothiazole-4-carboxylic acid

$$$$
CX16
     RDKit          2D

 18 20  0  0  0  0  0  0  0  0999 V2000
   -6.3914    0.0591    0.0000 O   0  0  0  0  0  0  0  0  0  0  0  0
   -5.0796    0.7866    0.0000 C   0  0  0  0  0  0  0  0  0  0  0  0
   -5.0538    2.2864    0.0000 O   0  0  0  0  0  0  0  0  0  0  0  0
   -3.7937    0.0143    0.0000 C   0  0  0  0  0  0  0  0  0  0  0  0
   -3.6626   -1.4800    0.0000 C   0  0  0  0  0  0  0  0  0  0  0  0
   -2.2010   -1.8171    0.0000 S   0  0  0  0  0  0  0  0  0  0  0  0
   -1.4287   -0.5311    0.0000 C   0  0  0  0  0  0  0  0  0  0  0  0
    0.0656   -0.4001    0.0000 C   0  0  0  0  0  0  0  0  0  0  0  0
    1.0499   -1.5319    0.0000 N   0  0  0  0  0  0  0  0  0  0  0  0
    2.4305   -0.9455    0.0000 C   0  0  0  0  0  0  0  0  0  0  0  0
    3.7901   -1.5791    0.0000 C   0  0  0  0  0  0  0  0  0  0  0  0
    5.0187   -0.7185    0.0000 N   0  0  0  0  0  0  0  0  0  0  0  0
    4.8876    0.7758    0.0000 C   0  0  0  0  0  0  0  0  0  0  0  0
    6.1161    1.6364    0.0000 O   0  0  0  0  0  0  0  0  0  0  0  0
    3.5280    1.4094    0.0000 C   0  0  0  0  0  0  0  0  0  0  0  0
    2.2995    0.5488    0.0000 C   0  0  0  0  0  0  0  0  0  0  0  0
    0.8378    0.8859    0.0000 S   0  0  0  0  0  0  0  0  0  0  0  0
   -2.4131    0.6007    0.0000 N   0  0  0  0  0  0  0  0  0  0  0  0
  1  2  2  0
  2  3  1  0
  4  2  1  6
  4  5  1  0
  5  6  1  0
  6  7  1  0
  7  8  1  0
  8  9  2  0
  9 10  1  0
 10 11  2  0
 11 12  1  0
 12 13  1  0
 13 14  2  0
 13 15  1  0
 15 16  2  0
 16 17  1  0
  7 18  2  0
 18  4  1  0
 17  8  1  0
 16 10  1  0
M  END
>  <compound_id>  (120) 
CX16

>  <name>  (120) 
Pyridone luciferin 3 (Prescher)

>  <structural_class>  (120) 
Heterocycle-exchanged core luciferins

>  <subfamily>  (120) 
pyridone

>  <smiles>  (120) 
O=C(O)[C@H]1CSC(c2nc3c[nH]c(=O)cc3s2)=N1

>  <inchi>  (120) 
InChI=1S/C10H7N3O3S2/c14-7-1-6-4(2-11-7)12-9(18-6)8-13-5(3-17-8)10(15)16/h1-2,5H,3H2,(H,11,14)(H,15,16)/t5-/m1/s1

>  <inchikey>  (120) 
HNOSLPWAJYTMBZ-RXMQYKEDSA-N

>  <molecular_formula>  (120) 
C10H7N3O3S2

>  <iupac_name>  (120) 
(S)-2-(Thiazolopyridin-6(5H)-one-2-yl)-4,5-dihydrothiazole-4-carboxylic acid

$$$$
CX17
     RDKit          2D

 18 20  0  0  0  0  0  0  0  0999 V2000
   -6.3914    0.0591    0.0000 O   0  0  0  0  0  0  0  0  0  0  0  0
   -5.0796    0.7866    0.0000 C   0  0  0  0  0  0  0  0  0  0  0  0
   -5.0538    2.2864    0.0000 O   0  0  0  0  0  0  0  0  0  0  0  0
   -3.7937    0.0143    0.0000 C   0  0  0  0  0  0  0  0  0  0  0  0
   -3.6626   -1.4800    0.0000 C   0  0  0  0  0  0  0  0  0  0  0  0
   -2.2010   -1.8171    0.0000 S   0  0  0  0  0  0  0  0  0  0  0  0
   -1.4287   -0.5311    0.0000 C   0  0  0  0  0  0  0  0  0  0  0  0
    0.0656   -0.4001    0.0000 C   0  0  0  0  0  0  0  0  0  0  0  0
    1.0499   -1.5319    0.0000 N   0  0  0  0  0  0  0  0  0  0  0  0
    2.4305   -0.9455    0.0000 C   0  0  0  0  0  0  0  0  0  0  0  0
    3.7901   -1.5791    0.0000 C   0  0  0  0  0  0  0  0  0  0  0  0
    5.0187   -0.7185    0.0000 C   0  0  0  0  0  0  0  0  0  0  0  0
    4.8876    0.7758    0.0000 C   0  0  0  0  0  0  0  0  0  0  0  0
    6.1161    1.6364    0.0000 O   0  0  0  0  0  0  0  0  0  0  0  0
    3.5280    1.4094    0.0000 N   0  0  0  0  0  0  0  0  0  0  0  0
    2.2995    0.5488    0.0000 C   0  0  0  0  0  0  0  0  0  0  0  0
    0.8378    0.8859    0.0000 S   0  0  0  0  0  0  0  0  0  0  0  0
   -2.4131    0.6007    0.0000 N   0  0  0  0  0  0  0  0  0  0  0  0
  1  2  2  0
  2  3  1  0
  4  2  1  6
  4  5  1  0
  5  6  1  0
  6  7  1  0
  7  8  1  0
  8  9  2  0
  9 10  1  0
 10 11  1  0
 11 12  2  0
 12 13  1  0
 13 14  2  0
 13 15  1  0
 15 16  1  0
 16 17  1  0
  7 18  2  0
 18  4  1  0
 17  8  1  0
 16 10  2  0
M  END
>  <compound_id>  (121) 
CX17

>  <name>  (121) 
Pyridone luciferin 4 (Prescher)

>  <structural_class>  (121) 
Heterocycle-exchanged core luciferins

>  <subfamily>  (121) 
pyridone

>  <smiles>  (121) 
O=C(O)[C@H]1CSC(c2nc3ccc(=O)[nH]c3s2)=N1

>  <inchi>  (121) 
InChI=1S/C10H7N3O3S2/c14-6-2-1-4-7(13-6)18-9(11-4)8-12-5(3-17-8)10(15)16/h1-2,5H,3H2,(H,13,14)(H,15,16)/t5-/m1/s1

>  <inchikey>  (121) 
DHLXGAFVTSJPKQ-RXMQYKEDSA-N

>  <molecular_formula>  (121) 
C10H7N3O3S2

>  <iupac_name>  (121) 
(S)-2-(Thiazolopyridin-5(4H)-one-2-yl)-4,5-dihydrothiazole-4-carboxylic acid

$$$$
FU01
     RDKit          2D

 23 26  0  0  0  0  0  0  0  0999 V2000
    5.0353   -3.5371    0.0000 C   0  0  0  0  0  0  0  0  0  0  0  0
    5.5023   -2.1116    0.0000 N   0  0  0  0  0  0  0  0  0  0  0  0
    6.9703   -1.8033    0.0000 C   0  0  0  0  0  0  0  0  0  0  0  0
    4.5013   -0.9945    0.0000 C   0  0  0  0  0  0  0  0  0  0  0  0
    4.8168    0.4720    0.0000 N   0  0  0  0  0  0  0  0  0  0  0  0
    3.5196    1.2252    0.0000 C   0  0  0  0  0  0  0  0  0  0  0  0
    3.2113    2.6931    0.0000 C   0  0  0  0  0  0  0  0  0  0  0  0
    1.7858    3.1601    0.0000 C   0  0  0  0  0  0  0  0  0  0  0  0
    0.6687    2.1592    0.0000 C   0  0  0  0  0  0  0  0  0  0  0  0
   -0.8227    2.3196    0.0000 N   0  0  0  0  0  0  0  0  0  0  0  0
   -1.4362    0.9508    0.0000 C   0  0  0  0  0  0  0  0  0  0  0  0
   -2.9041    0.6425    0.0000 C   0  0  0  0  0  0  0  0  0  0  0  0
   -3.5176   -0.7263    0.0000 N   0  0  0  0  0  0  0  0  0  0  0  0
   -5.0090   -0.5659    0.0000 C   0  0  0  0  0  0  0  0  0  0  0  0
   -6.0154   -1.6782    0.0000 C   0  0  0  0  0  0  0  0  0  0  0  0
   -5.5554   -3.1059    0.0000 O   0  0  0  0  0  0  0  0  0  0  0  0
   -7.4819   -1.3627    0.0000 O   0  0  0  0  0  0  0  0  0  0  0  0
   -5.3173    0.9021    0.0000 C   0  0  0  0  0  0  0  0  0  0  0  0
   -4.0164    1.6489    0.0000 S   0  0  0  0  0  0  0  0  0  0  0  0
   -0.3239   -0.0556    0.0000 S   0  0  0  0  0  0  0  0  0  0  0  0
    0.9770    0.6912    0.0000 C   0  0  0  0  0  0  0  0  0  0  0  0
    2.4024    0.2242    0.0000 C   0  0  0  0  0  0  0  0  0  0  0  0
    3.0092   -1.1476    0.0000 S   0  0  0  0  0  0  0  0  0  0  0  0
  1  2  1  0
  2  3  1  0
  2  4  1  0
  4  5  2  0
  5  6  1  0
  6  7  1  0
  7  8  2  0
  8  9  1  0
  9 10  1  0
 10 11  2  0
 11 12  1  0
 12 13  2  0
 13 14  1  0
 14 15  1  0
 15 16  2  0
 15 17  1  0
 14 18  1  0
 18 19  1  0
 11 20  1  0
 20 21  1  0
 21 22  1  0
 22 23  1  0
 23  4  1  0
 22  6  2  0
 21  9  2  0
 19 12  1  0
M  END
>  <compound_id>  (122) 
FU01

>  <name>  (122) 
'V'-shaped benzobisthiazole luciferin 11a (DMA-V-Luc (dimethylamino))

>  <structural_class>  (122) 
Ring-fused, angularly extended luciferins

>  <subfamily>  (122) 
benzobisthiazole

>  <smiles>  (122) 
CN(C)c1nc2ccc3nc(C4=NC(C(=O)O)CS4)sc3c2s1

>  <inchi>  (122) 
InChI=1S/C14H12N4O2S3/c1-18(2)14-17-7-4-3-6-9(10(7)23-14)22-12(15-6)11-16-8(5-21-11)13(19)20/h3-4,8H,5H2,1-2H3,(H,19,20)

>  <inchikey>  (122) 
JBZYUXJGHARLMI-UHFFFAOYSA-N

>  <molecular_formula>  (122) 
C14H12N4O2S3

>  <stereochemistry>  (122) 
racemate

$$$$
FU02
     RDKit          2D

 25 29  0  0  0  0  0  0  0  0999 V2000
    8.2057    1.7589    0.0000 O   0  0  0  0  0  0  0  0  0  0  0  0
    7.2692    0.5872    0.0000 C   0  0  0  0  0  0  0  0  0  0  0  0
    7.8157   -0.8097    0.0000 O   0  0  0  0  0  0  0  0  0  0  0  0
    5.7862    0.8123    0.0000 C   0  0  0  0  0  0  0  0  0  0  0  0
    5.0967    2.1445    0.0000 C   0  0  0  0  0  0  0  0  0  0  0  0
    3.6167    1.9004    0.0000 S   0  0  0  0  0  0  0  0  0  0  0  0
    3.3915    0.4173    0.0000 C   0  0  0  0  0  0  0  0  0  0  0  0
    2.0593   -0.2722    0.0000 C   0  0  0  0  0  0  0  0  0  0  0  0
    1.8342   -1.7552    0.0000 N   0  0  0  0  0  0  0  0  0  0  0  0
    0.3542   -1.9993    0.0000 C   0  0  0  0  0  0  0  0  0  0  0  0
   -0.4547   -3.2625    0.0000 C   0  0  0  0  0  0  0  0  0  0  0  0
   -1.9531   -3.1936    0.0000 C   0  0  0  0  0  0  0  0  0  0  0  0
   -2.6427   -1.8614    0.0000 C   0  0  0  0  0  0  0  0  0  0  0  0
   -4.0940   -1.4825    0.0000 N   0  0  0  0  0  0  0  0  0  0  0  0
   -4.1821    0.0149    0.0000 C   0  0  0  0  0  0  0  0  0  0  0  0
   -5.4453    0.8238    0.0000 N   0  0  0  0  0  0  0  0  0  0  0  0
   -6.8422    0.2773    0.0000 C   0  0  0  0  0  0  0  0  0  0  0  0
   -7.7936    1.4370    0.0000 C   0  0  0  0  0  0  0  0  0  0  0  0
   -6.9847    2.7002    0.0000 C   0  0  0  0  0  0  0  0  0  0  0  0
   -5.5334    2.3212    0.0000 C   0  0  0  0  0  0  0  0  0  0  0  0
   -2.7852    0.5614    0.0000 S   0  0  0  0  0  0  0  0  0  0  0  0
   -1.8338   -0.5982    0.0000 C   0  0  0  0  0  0  0  0  0  0  0  0
   -0.3353   -0.6672    0.0000 C   0  0  0  0  0  0  0  0  0  0  0  0
    0.7185    0.4003    0.0000 S   0  0  0  0  0  0  0  0  0  0  0  0
    4.7323   -0.2551    0.0000 N   0  0  0  0  0  0  0  0  0  0  0  0
  1  2  2  0
  2  3  1  0
  2  4  1  0
  4  5  1  0
  5  6  1  0
  6  7  1  0
  7  8  1  0
  8  9  2  0
  9 10  1  0
 10 11  1  0
 11 12  2  0
 12 13  1  0
 13 14  1  0
 14 15  2  0
 15 16  1  0
 16 17  1  0
 17 18  1  0
 18 19  1  0
 19 20  1  0
 15 21  1  0
 21 22  1  0
 22 23  1  0
 23 24  1  0
  7 25  2  0
 25  4  1  0
 24  8  1  0
 23 10  2  0
 22 13  2  0
 20 16  1  0
M  END
>  <compound_id>  (123) 
FU02

>  <name>  (123) 
'V'-shaped benzobisthiazole luciferin 11b (Pyr-V-Luc (pyrrolidin-1-yl))

>  <structural_class>  (123) 
Ring-fused, angularly extended luciferins

>  <subfamily>  (123) 
benzobisthiazole

>  <smiles>  (123) 
O=C(O)C1CSC(c2nc3ccc4nc(N5CCCC5)sc4c3s2)=N1

>  <inchi>  (123) 
InChI=1S/C16H14N4O2S3/c21-15(22)10-7-23-13(18-10)14-17-8-3-4-9-12(11(8)24-14)25-16(19-9)20-5-1-2-6-20/h3-4,10H,1-2,5-7H2,(H,21,22)

>  <inchikey>  (123) 
XBJPSFNZPMCRPQ-UHFFFAOYSA-N

>  <molecular_formula>  (123) 
C16H14N4O2S3

>  <stereochemistry>  (123) 
racemate

$$$$
FU03
     RDKit          2D

 26 30  0  0  0  0  0  0  0  0999 V2000
    8.4492    1.9129    0.0000 O   0  0  0  0  0  0  0  0  0  0  0  0
    7.5462    0.7151    0.0000 C   0  0  0  0  0  0  0  0  0  0  0  0
    8.1321   -0.6657    0.0000 O   0  0  0  0  0  0  0  0  0  0  0  0
    6.0575    0.8982    0.0000 C   0  0  0  0  0  0  0  0  0  0  0  0
    5.3305    2.2103    0.0000 C   0  0  0  0  0  0  0  0  0  0  0  0
    3.8580    1.9244    0.0000 S   0  0  0  0  0  0  0  0  0  0  0  0
    3.6749    0.4356    0.0000 C   0  0  0  0  0  0  0  0  0  0  0  0
    2.3628   -0.2914    0.0000 C   0  0  0  0  0  0  0  0  0  0  0  0
    2.1798   -1.7802    0.0000 N   0  0  0  0  0  0  0  0  0  0  0  0
    0.7073   -2.0661    0.0000 C   0  0  0  0  0  0  0  0  0  0  0  0
   -0.0655   -3.3517    0.0000 C   0  0  0  0  0  0  0  0  0  0  0  0
   -1.5653   -3.3253    0.0000 C   0  0  0  0  0  0  0  0  0  0  0  0
   -2.2923   -2.0132    0.0000 C   0  0  0  0  0  0  0  0  0  0  0  0
   -3.7538   -1.6755    0.0000 N   0  0  0  0  0  0  0  0  0  0  0  0
   -3.8842   -0.1812    0.0000 C   0  0  0  0  0  0  0  0  0  0  0  0
   -5.1698    0.5916    0.0000 N   0  0  0  0  0  0  0  0  0  0  0  0
   -5.1434    2.0914    0.0000 C   0  0  0  0  0  0  0  0  0  0  0  0
   -6.4290    2.8642    0.0000 C   0  0  0  0  0  0  0  0  0  0  0  0
   -7.7410    2.1372    0.0000 C   0  0  0  0  0  0  0  0  0  0  0  0
   -7.7675    0.6375    0.0000 C   0  0  0  0  0  0  0  0  0  0  0  0
   -6.4819   -0.1353    0.0000 C   0  0  0  0  0  0  0  0  0  0  0  0
   -2.5033    0.4047    0.0000 S   0  0  0  0  0  0  0  0  0  0  0  0
   -1.5195   -0.7276    0.0000 C   0  0  0  0  0  0  0  0  0  0  0  0
   -0.0197   -0.7540    0.0000 C   0  0  0  0  0  0  0  0  0  0  0  0
    1.0035    0.3428    0.0000 S   0  0  0  0  0  0  0  0  0  0  0  0
    5.0343   -0.1986    0.0000 N   0  0  0  0  0  0  0  0  0  0  0  0
  1  2  2  0
  2  3  1  0
  2  4  1  0
  4  5  1  0
  5  6  1  0
  6  7  1  0
  7  8  1  0
  8  9  2  0
  9 10  1  0
 10 11  1  0
 11 12  2  0
 12 13  1  0
 13 14  1  0
 14 15  2  0
 15 16  1  0
 16 17  1  0
 17 18  1  0
 18 19  1  0
 19 20  1  0
 20 21  1  0
 15 22  1  0
 22 23  1  0
 23 24  1  0
 24 25  1  0
  7 26  2  0
 26  4  1  0
 25  8  1  0
 24 10  2  0
 23 13  2  0
 21 16  1  0
M  END
>  <compound_id>  (124) 
FU03

>  <name>  (124) 
'V'-shaped benzobisthiazole luciferin 11c (Pip-V-Luc (piperidin-1-yl))

>  <structural_class>  (124) 
Ring-fused, angularly extended luciferins

>  <subfamily>  (124) 
benzobisthiazole

>  <smiles>  (124) 
O=C(O)C1CSC(c2nc3ccc4nc(N5CCCCC5)sc4c3s2)=N1

>  <inchi>  (124) 
InChI=1S/C17H16N4O2S3/c22-16(23)11-8-24-14(19-11)15-18-9-4-5-10-13(12(9)25-15)26-17(20-10)21-6-2-1-3-7-21/h4-5,11H,1-3,6-8H2,(H,22,23)

>  <inchikey>  (124) 
XJQWICWBKXUFOO-UHFFFAOYSA-N

>  <molecular_formula>  (124) 
C17H16N4O2S3

>  <stereochemistry>  (124) 
racemate

$$$$
FU04
     RDKit          2D

 26 30  0  0  0  0  0  0  0  0999 V2000
    8.4492    1.9129    0.0000 O   0  0  0  0  0  0  0  0  0  0  0  0
    7.5462    0.7151    0.0000 C   0  0  0  0  0  0  0  0  0  0  0  0
    8.1321   -0.6657    0.0000 O   0  0  0  0  0  0  0  0  0  0  0  0
    6.0575    0.8982    0.0000 C   0  0  0  0  0  0  0  0  0  0  0  0
    5.3305    2.2103    0.0000 C   0  0  0  0  0  0  0  0  0  0  0  0
    3.8580    1.9244    0.0000 S   0  0  0  0  0  0  0  0  0  0  0  0
    3.6749    0.4356    0.0000 C   0  0  0  0  0  0  0  0  0  0  0  0
    2.3628   -0.2914    0.0000 C   0  0  0  0  0  0  0  0  0  0  0  0
    2.1798   -1.7802    0.0000 N   0  0  0  0  0  0  0  0  0  0  0  0
    0.7073   -2.0661    0.0000 C   0  0  0  0  0  0  0  0  0  0  0  0
   -0.0655   -3.3517    0.0000 C   0  0  0  0  0  0  0  0  0  0  0  0
   -1.5653   -3.3253    0.0000 C   0  0  0  0  0  0  0  0  0  0  0  0
   -2.2923   -2.0132    0.0000 C   0  0  0  0  0  0  0  0  0  0  0  0
   -3.7538   -1.6755    0.0000 N   0  0  0  0  0  0  0  0  0  0  0  0
   -3.8842   -0.1812    0.0000 C   0  0  0  0  0  0  0  0  0  0  0  0
   -5.1698    0.5916    0.0000 N   0  0  0  0  0  0  0  0  0  0  0  0
   -5.1434    2.0914    0.0000 C   0  0  0  0  0  0  0  0  0  0  0  0
   -6.4290    2.8642    0.0000 C   0  0  0  0  0  0  0  0  0  0  0  0
   -7.7410    2.1372    0.0000 O   0  0  0  0  0  0  0  0  0  0  0  0
   -7.7675    0.6375    0.0000 C   0  0  0  0  0  0  0  0  0  0  0  0
   -6.4819   -0.1353    0.0000 C   0  0  0  0  0  0  0  0  0  0  0  0
   -2.5033    0.4047    0.0000 S   0  0  0  0  0  0  0  0  0  0  0  0
   -1.5195   -0.7276    0.0000 C   0  0  0  0  0  0  0  0  0  0  0  0
   -0.0197   -0.7540    0.0000 C   0  0  0  0  0  0  0  0  0  0  0  0
    1.0035    0.3428    0.0000 S   0  0  0  0  0  0  0  0  0  0  0  0
    5.0343   -0.1986    0.0000 N   0  0  0  0  0  0  0  0  0  0  0  0
  1  2  2  0
  2  3  1  0
  2  4  1  0
  4  5  1  0
  5  6  1  0
  6  7  1  0
  7  8  1  0
  8  9  2  0
  9 10  1  0
 10 11  1  0
 11 12  2  0
 12 13  1  0
 13 14  1  0
 14 15  2  0
 15 16  1  0
 16 17  1  0
 17 18  1  0
 18 19  1  0
 19 20  1  0
 20 21  1  0
 15 22  1  0
 22 23  1  0
 23 24  1  0
 24 25  1  0
  7 26  2  0
 26  4  1  0
 25  8  1  0
 24 10  2  0
 23 13  2  0
 21 16  1  0
M  END
>  <compound_id>  (125) 
FU04

>  <name>  (125) 
'V'-shaped benzobisthiazole luciferin 11d (Morph-V-Luc (morpholino))

>  <structural_class>  (125) 
Ring-fused, angularly extended luciferins

>  <subfamily>  (125) 
benzobisthiazole

>  <smiles>  (125) 
O=C(O)C1CSC(c2nc3ccc4nc(N5CCOCC5)sc4c3s2)=N1

>  <inchi>  (125) 
InChI=1S/C16H14N4O3S3/c21-15(22)10-7-24-13(18-10)14-17-8-1-2-9-12(11(8)25-14)26-16(19-9)20-3-5-23-6-4-20/h1-2,10H,3-7H2,(H,21,22)

>  <inchikey>  (125) 
LVMOIAPVMWTQNH-UHFFFAOYSA-N

>  <molecular_formula>  (125) 
C16H14N4O3S3

>  <stereochemistry>  (125) 
racemate

$$$$
FU05
     RDKit          2D

 22 25  0  0  0  0  0  0  0  0999 V2000
    6.7879   -2.0723    0.0000 N   0  0  0  0  0  0  0  0  0  0  0  0
    5.4143   -1.4696    0.0000 C   0  0  0  0  0  0  0  0  0  0  0  0
    4.2055   -2.3578    0.0000 C   0  0  0  0  0  0  0  0  0  0  0  0
    2.8320   -1.7551    0.0000 C   0  0  0  0  0  0  0  0  0  0  0  0
    2.6671   -0.2641    0.0000 C   0  0  0  0  0  0  0  0  0  0  0  0
    3.8759    0.6240    0.0000 C   0  0  0  0  0  0  0  0  0  0  0  0
    3.7111    2.1150    0.0000 C   0  0  0  0  0  0  0  0  0  0  0  0
    2.3375    2.7177    0.0000 C   0  0  0  0  0  0  0  0  0  0  0  0
    1.1287    1.8295    0.0000 C   0  0  0  0  0  0  0  0  0  0  0  0
   -0.3401    2.1335    0.0000 N   0  0  0  0  0  0  0  0  0  0  0  0
   -1.0831    0.8304    0.0000 C   0  0  0  0  0  0  0  0  0  0  0  0
   -2.5740    0.6656    0.0000 C   0  0  0  0  0  0  0  0  0  0  0  0
   -3.3170   -0.6375    0.0000 N   0  0  0  0  0  0  0  0  0  0  0  0
   -4.7859   -0.3335    0.0000 C   0  0  0  0  0  0  0  0  0  0  0  0
   -5.8952   -1.3432    0.0000 C   0  0  0  0  0  0  0  0  0  0  0  0
   -5.5755   -2.8087    0.0000 O   0  0  0  0  0  0  0  0  0  0  0  0
   -7.3243   -0.8873    0.0000 O   0  0  0  0  0  0  0  0  0  0  0  0
   -4.9507    1.1574    0.0000 C   0  0  0  0  0  0  0  0  0  0  0  0
   -3.5837    1.7749    0.0000 S   0  0  0  0  0  0  0  0  0  0  0  0
   -0.0735   -0.2789    0.0000 S   0  0  0  0  0  0  0  0  0  0  0  0
    1.2936    0.3386    0.0000 C   0  0  0  0  0  0  0  0  0  0  0  0
    5.2495    0.0213    0.0000 C   0  0  0  0  0  0  0  0  0  0  0  0
  1  2  1  0
  2  3  1  0
  3  4  2  0
  4  5  1  0
  5  6  2  0
  6  7  1  0
  7  8  2  0
  8  9  1  0
  9 10  1  0
 10 11  2  0
 11 12  1  0
 12 13  2  0
 13 14  1  0
 14 15  1  1
 15 16  2  0
 15 17  1  0
 14 18  1  0
 18 19  1  0
 11 20  1  0
 20 21  1  0
  6 22  1  0
 22  2  2  0
 21  5  1  0
 21  9  2  0
 19 12  1  0
M  END
>  <compound_id>  (126) 
FU05

>  <name>  (126) 
NH2-NpLH2

>  <structural_class>  (126) 
Ring-fused, angularly extended luciferins

>  <subfamily>  (126) 
naphthothiazole

>  <smiles>  (126) 
Nc1ccc2c(ccc3nc(C4=N[C@@H](C(=O)O)CS4)sc32)c1

>  <inchi>  (126) 
InChI=1S/C15H11N3O2S2/c16-8-2-3-9-7(5-8)1-4-10-12(9)22-14(17-10)13-18-11(6-21-13)15(19)20/h1-5,11H,6,16H2,(H,19,20)/t11-/m1/s1

>  <inchikey>  (126) 
HGVLOHHYLUPLGT-LLVKDONJSA-N

>  <molecular_formula>  (126) 
C15H11N3O2S2

>  <iupac_name>  (126) 
amino-naphthyl naphthothiazole luciferin; (S)-2-(7-aminonaphthothiazol-2-yl)-4,5-dihydrothiazole-4-carboxylic acid (Branchini2022)

$$$$
FU06
     RDKit          2D

 22 25  0  0  0  0  0  0  0  0999 V2000
    6.7879   -2.0723    0.0000 N   0  0  0  0  0  0  0  0  0  0  0  0
    5.4143   -1.4696    0.0000 C   0  0  0  0  0  0  0  0  0  0  0  0
    4.2055   -2.3578    0.0000 C   0  0  0  0  0  0  0  0  0  0  0  0
    2.8320   -1.7551    0.0000 N   0  0  0  0  0  0  0  0  0  0  0  0
    2.6671   -0.2641    0.0000 C   0  0  0  0  0  0  0  0  0  0  0  0
    3.8759    0.6240    0.0000 C   0  0  0  0  0  0  0  0  0  0  0  0
    3.7111    2.1150    0.0000 C   0  0  0  0  0  0  0  0  0  0  0  0
    2.3375    2.7177    0.0000 C   0  0  0  0  0  0  0  0  0  0  0  0
    1.1287    1.8295    0.0000 C   0  0  0  0  0  0  0  0  0  0  0  0
   -0.3401    2.1335    0.0000 N   0  0  0  0  0  0  0  0  0  0  0  0
   -1.0831    0.8304    0.0000 C   0  0  0  0  0  0  0  0  0  0  0  0
   -2.5740    0.6656    0.0000 C   0  0  0  0  0  0  0  0  0  0  0  0
   -3.3170   -0.6375    0.0000 N   0  0  0  0  0  0  0  0  0  0  0  0
   -4.7859   -0.3335    0.0000 C   0  0  0  0  0  0  0  0  0  0  0  0
   -5.8952   -1.3432    0.0000 C   0  0  0  0  0  0  0  0  0  0  0  0
   -5.5755   -2.8087    0.0000 O   0  0  0  0  0  0  0  0  0  0  0  0
   -7.3243   -0.8873    0.0000 O   0  0  0  0  0  0  0  0  0  0  0  0
   -4.9507    1.1574    0.0000 C   0  0  0  0  0  0  0  0  0  0  0  0
   -3.5837    1.7749    0.0000 S   0  0  0  0  0  0  0  0  0  0  0  0
   -0.0735   -0.2789    0.0000 S   0  0  0  0  0  0  0  0  0  0  0  0
    1.2936    0.3386    0.0000 C   0  0  0  0  0  0  0  0  0  0  0  0
    5.2495    0.0213    0.0000 C   0  0  0  0  0  0  0  0  0  0  0  0
  1  2  1  0
  2  3  1  0
  3  4  2  0
  4  5  1  0
  5  6  2  0
  6  7  1  0
  7  8  2  0
  8  9  1  0
  9 10  1  0
 10 11  2  0
 11 12  1  0
 12 13  2  0
 13 14  1  0
 14 15  1  1
 15 16  2  0
 15 17  1  0
 14 18  1  0
 18 19  1  0
 11 20  1  0
 20 21  1  0
  6 22  1  0
 22  2  2  0
 21  5  1  0
 21  9  2  0
 19 12  1  0
M  END
>  <compound_id>  (127) 
FU06

>  <name>  (127) 
NH2-QLH2

>  <structural_class>  (127) 
Ring-fused, angularly extended luciferins

>  <subfamily>  (127) 
thiazoloquinoline

>  <smiles>  (127) 
Nc1cnc2c(ccc3nc(C4=N[C@@H](C(=O)O)CS4)sc32)c1

>  <inchi>  (127) 
InChI=1S/C14H10N4O2S2/c15-7-3-6-1-2-8-11(10(6)16-4-7)22-13(17-8)12-18-9(5-21-12)14(19)20/h1-4,9H,5,15H2,(H,19,20)/t9-/m1/s1

>  <inchikey>  (127) 
RPZKXKMUAWQZSD-SECBINFHSA-N

>  <molecular_formula>  (127) 
C14H10N4O2S2

>  <iupac_name>  (127) 
(S)-2-(7-Aminothiazoloquinolin-2-yl)-4,5-dihydrothiazole-4-carboxylic acid

$$$$
FU07
     RDKit          2D

 22 25  0  0  0  0  0  0  0  0999 V2000
   -7.3243    0.8873    0.0000 O   0  0  0  0  0  0  0  0  0  0  0  0
   -5.8952    1.3432    0.0000 C   0  0  0  0  0  0  0  0  0  0  0  0
   -5.5755    2.8087    0.0000 O   0  0  0  0  0  0  0  0  0  0  0  0
   -4.7859    0.3335    0.0000 C   0  0  0  0  0  0  0  0  0  0  0  0
   -4.9507   -1.1574    0.0000 C   0  0  0  0  0  0  0  0  0  0  0  0
   -3.5837   -1.7749    0.0000 S   0  0  0  0  0  0  0  0  0  0  0  0
   -2.5740   -0.6656    0.0000 C   0  0  0  0  0  0  0  0  0  0  0  0
   -1.0831   -0.8304    0.0000 C   0  0  0  0  0  0  0  0  0  0  0  0
   -0.3401   -2.1335    0.0000 N   0  0  0  0  0  0  0  0  0  0  0  0
    1.1287   -1.8295    0.0000 C   0  0  0  0  0  0  0  0  0  0  0  0
    2.3375   -2.7177    0.0000 C   0  0  0  0  0  0  0  0  0  0  0  0
    3.7111   -2.1150    0.0000 C   0  0  0  0  0  0  0  0  0  0  0  0
    3.8759   -0.6240    0.0000 C   0  0  0  0  0  0  0  0  0  0  0  0
    5.2495   -0.0213    0.0000 C   0  0  0  0  0  0  0  0  0  0  0  0
    5.4143    1.4696    0.0000 C   0  0  0  0  0  0  0  0  0  0  0  0
    6.7879    2.0723    0.0000 O   0  0  0  0  0  0  0  0  0  0  0  0
    4.2055    2.3578    0.0000 C   0  0  0  0  0  0  0  0  0  0  0  0
    2.8320    1.7551    0.0000 C   0  0  0  0  0  0  0  0  0  0  0  0
    2.6671    0.2641    0.0000 C   0  0  0  0  0  0  0  0  0  0  0  0
    1.2936   -0.3386    0.0000 C   0  0  0  0  0  0  0  0  0  0  0  0
   -0.0735    0.2789    0.0000 S   0  0  0  0  0  0  0  0  0  0  0  0
   -3.3170    0.6375    0.0000 N   0  0  0  0  0  0  0  0  0  0  0  0
  1  2  2  0
  2  3  1  0
  4  2  1  6
  4  5  1  0
  5  6  1  0
  6  7  1  0
  7  8  1  0
  8  9  2  0
  9 10  1  0
 10 11  1  0
 11 12  2  0
 12 13  1  0
 13 14  1  0
 14 15  2  0
 15 16  1  0
 15 17  1  0
 17 18  2  0
 18 19  1  0
 19 20  1  0
 20 21  1  0
  7 22  2  0
 22  4  1  0
 21  8  1  0
 20 10  2  0
 19 13  2  0
M  END
>  <compound_id>  (128) 
FU07

>  <name>  (128) 
OH-NpLH2

>  <structural_class>  (128) 
Ring-fused, angularly extended luciferins

>  <subfamily>  (128) 
naphthothiazole

>  <smiles>  (128) 
O=C(O)[C@H]1CSC(c2nc3ccc4cc(O)ccc4c3s2)=N1

>  <inchi>  (128) 
InChI=1S/C15H10N2O3S2/c18-8-2-3-9-7(5-8)1-4-10-12(9)22-14(16-10)13-17-11(6-21-13)15(19)20/h1-5,11,18H,6H2,(H,19,20)/t11-/m1/s1

>  <inchikey>  (128) 
XVSRAZMOCNDEAA-LLVKDONJSA-N

>  <molecular_formula>  (128) 
C15H10N2O3S2

>  <iupac_name>  (128) 
hydroxy-naphthothiazole luciferin; (S)-2-(7-hydroxynaphthothiazol-2-yl)-4,5-dihydrothiazole-4-carboxylic acid (Branchini2022)

$$$$
FU08
     RDKit          2D

 22 25  0  0  0  0  0  0  0  0999 V2000
   -7.3243    0.8873    0.0000 O   0  0  0  0  0  0  0  0  0  0  0  0
   -5.8952    1.3432    0.0000 C   0  0  0  0  0  0  0  0  0  0  0  0
   -5.5755    2.8087    0.0000 O   0  0  0  0  0  0  0  0  0  0  0  0
   -4.7859    0.3335    0.0000 C   0  0  0  0  0  0  0  0  0  0  0  0
   -4.9507   -1.1574    0.0000 C   0  0  0  0  0  0  0  0  0  0  0  0
   -3.5837   -1.7749    0.0000 S   0  0  0  0  0  0  0  0  0  0  0  0
   -2.5740   -0.6656    0.0000 C   0  0  0  0  0  0  0  0  0  0  0  0
   -1.0831   -0.8304    0.0000 C   0  0  0  0  0  0  0  0  0  0  0  0
   -0.3401   -2.1335    0.0000 N   0  0  0  0  0  0  0  0  0  0  0  0
    1.1287   -1.8295    0.0000 C   0  0  0  0  0  0  0  0  0  0  0  0
    2.3375   -2.7177    0.0000 C   0  0  0  0  0  0  0  0  0  0  0  0
    3.7111   -2.1150    0.0000 C   0  0  0  0  0  0  0  0  0  0  0  0
    3.8759   -0.6240    0.0000 C   0  0  0  0  0  0  0  0  0  0  0  0
    5.2495   -0.0213    0.0000 C   0  0  0  0  0  0  0  0  0  0  0  0
    5.4143    1.4696    0.0000 C   0  0  0  0  0  0  0  0  0  0  0  0
    6.7879    2.0723    0.0000 O   0  0  0  0  0  0  0  0  0  0  0  0
    4.2055    2.3578    0.0000 C   0  0  0  0  0  0  0  0  0  0  0  0
    2.8320    1.7551    0.0000 N   0  0  0  0  0  0  0  0  0  0  0  0
    2.6671    0.2641    0.0000 C   0  0  0  0  0  0  0  0  0  0  0  0
    1.2936   -0.3386    0.0000 C   0  0  0  0  0  0  0  0  0  0  0  0
   -0.0735    0.2789    0.0000 S   0  0  0  0  0  0  0  0  0  0  0  0
   -3.3170    0.6375    0.0000 N   0  0  0  0  0  0  0  0  0  0  0  0
  1  2  2  0
  2  3  1  0
  4  2  1  6
  4  5  1  0
  5  6  1  0
  6  7  1  0
  7  8  1  0
  8  9  2  0
  9 10  1  0
 10 11  1  0
 11 12  2  0
 12 13  1  0
 13 14  1  0
 14 15  2  0
 15 16  1  0
 15 17  1  0
 17 18  2  0
 18 19  1  0
 19 20  1  0
 20 21  1  0
  7 22  2  0
 22  4  1  0
 21  8  1  0
 20 10  2  0
 19 13  2  0
M  END
>  <compound_id>  (129) 
FU08

>  <name>  (129) 
OH-QLH2

>  <structural_class>  (129) 
Ring-fused, angularly extended luciferins

>  <subfamily>  (129) 
thiazoloquinoline

>  <smiles>  (129) 
O=C(O)[C@H]1CSC(c2nc3ccc4cc(O)cnc4c3s2)=N1

>  <inchi>  (129) 
InChI=1S/C14H9N3O3S2/c18-7-3-6-1-2-8-11(10(6)15-4-7)22-13(16-8)12-17-9(5-21-12)14(19)20/h1-4,9,18H,5H2,(H,19,20)/t9-/m1/s1

>  <inchikey>  (129) 
PIKZIYQDPBFUIM-SECBINFHSA-N

>  <molecular_formula>  (129) 
C14H9N3O3S2

>  <iupac_name>  (129) 
(S)-2-(7-Hydroxythiazoloquinolin-2-yl)-4,5-dihydrothiazole-4-carboxylic acid

$$$$
PB01
     RDKit          2D

 22 24  0  0  0  0  0  0  0  0999 V2000
   -8.6816    0.7716    0.0000 O   0  0  0  0  0  0  0  0  0  0  0  0
   -7.2270    1.1381    0.0000 C   0  0  0  0  0  0  0  0  0  0  0  0
   -6.8171    2.5810    0.0000 O   0  0  0  0  0  0  0  0  0  0  0  0
   -6.1824    0.0616    0.0000 C   0  0  0  0  0  0  0  0  0  0  0  0
   -6.4392   -1.4162    0.0000 C   0  0  0  0  0  0  0  0  0  0  0  0
   -5.1131   -2.1172    0.0000 S   0  0  0  0  0  0  0  0  0  0  0  0
   -4.0366   -1.0725    0.0000 C   0  0  0  0  0  0  0  0  0  0  0  0
   -2.5588   -1.3294    0.0000 C   0  0  0  0  0  0  0  0  0  0  0  0
   -1.5974   -0.1780    0.0000 C   0  0  0  0  0  0  0  0  0  0  0  0
   -0.1196   -0.4348    0.0000 C   0  0  0  0  0  0  0  0  0  0  0  0
    0.8418    0.7166    0.0000 C   0  0  0  0  0  0  0  0  0  0  0  0
    2.3196    0.4598    0.0000 C   0  0  0  0  0  0  0  0  0  0  0  0
    2.9805   -0.8868    0.0000 N   0  0  0  0  0  0  0  0  0  0  0  0
    4.4654   -0.6744    0.0000 C   0  0  0  0  0  0  0  0  0  0  0  0
    5.6168   -1.6358    0.0000 C   0  0  0  0  0  0  0  0  0  0  0  0
    7.0251   -1.1193    0.0000 C   0  0  0  0  0  0  0  0  0  0  0  0
    7.2819    0.3586    0.0000 C   0  0  0  0  0  0  0  0  0  0  0  0
    8.6902    0.8751    0.0000 O   0  0  0  0  0  0  0  0  0  0  0  0
    6.1305    1.3199    0.0000 C   0  0  0  0  0  0  0  0  0  0  0  0
    4.7222    0.8035    0.0000 C   0  0  0  0  0  0  0  0  0  0  0  0
    3.3961    1.5044    0.0000 S   0  0  0  0  0  0  0  0  0  0  0  0
   -4.6975    0.2740    0.0000 N   0  0  0  0  0  0  0  0  0  0  0  0
  1  2  2  0
  2  3  1  0
  2  4  1  0
  4  5  1  0
  5  6  1  0
  6  7  1  0
  7  8  1  0
  8  9  2  0
  9 10  1  0
 10 11  2  0
 11 12  1  0
 12 13  2  0
 13 14  1  0
 14 15  1  0
 15 16  2  0
 16 17  1  0
 17 18  1  0
 17 19  2  0
 19 20  1  0
 20 21  1  0
  7 22  2  0
 22  4  1  0
 21 12  1  0
 20 14  2  0
M  END
>  <compound_id>  (130) 
PB01

>  <name>  (130) 
Diene-linked infraluciferin analogue

>  <structural_class>  (130) 
pi-Extended luciferins retaining the benzothiazole

>  <subfamily>  (130) 
benzothiazole

>  <smiles>  (130) 
O=C(O)C1CSC(/C=C/C=C/c2nc3ccc(O)cc3s2)=N1

>  <inchi>  (130) 
InChI=1S/C15H12N2O3S2/c18-9-5-6-10-12(7-9)22-14(16-10)4-2-1-3-13-17-11(8-21-13)15(19)20/h1-7,11,18H,8H2,(H,19,20)/b3-1+,4-2+

>  <inchikey>  (130) 
ODQVKTVUFUQILX-ZPUQHVIOSA-N

>  <molecular_formula>  (130) 
C15H12N2O3S2

>  <iupac_name>  (130) 
6-Hydroxy-2-benzothiazole

>  <stereochemistry>  (130) 
racemate

$$$$
PB02
     RDKit          2D

 19 20  0  0  0  0  0  0  0  0999 V2000
   -6.7782    1.3390    0.0000 C   0  0  0  0  0  0  0  0  0  0  0  0
   -5.9766    0.0712    0.0000 N   0  0  0  0  0  0  0  0  0  0  0  0
   -6.6738   -1.2569    0.0000 C   0  0  0  0  0  0  0  0  0  0  0  0
   -4.4778    0.1315    0.0000 C   0  0  0  0  0  0  0  0  0  0  0  0
   -3.7806    1.4596    0.0000 C   0  0  0  0  0  0  0  0  0  0  0  0
   -2.2818    1.5199    0.0000 C   0  0  0  0  0  0  0  0  0  0  0  0
   -1.4802    0.2520    0.0000 C   0  0  0  0  0  0  0  0  0  0  0  0
    0.0186    0.3123    0.0000 C   0  0  0  0  0  0  0  0  0  0  0  0
    0.8202   -0.9556    0.0000 C   0  0  0  0  0  0  0  0  0  0  0  0
    2.3190   -0.8953    0.0000 C   0  0  0  0  0  0  0  0  0  0  0  0
    3.1512    0.3527    0.0000 N   0  0  0  0  0  0  0  0  0  0  0  0
    4.5952   -0.0531    0.0000 C   0  0  0  0  0  0  0  0  0  0  0  0
    5.7723    0.8766    0.0000 C   0  0  0  0  0  0  0  0  0  0  0  0
    5.5557    2.3609    0.0000 O   0  0  0  0  0  0  0  0  0  0  0  0
    7.1661    0.3221    0.0000 O   0  0  0  0  0  0  0  0  0  0  0  0
    4.6555   -1.5519    0.0000 C   0  0  0  0  0  0  0  0  0  0  0  0
    3.2487   -2.0724    0.0000 S   0  0  0  0  0  0  0  0  0  0  0  0
   -2.1774   -1.0761    0.0000 C   0  0  0  0  0  0  0  0  0  0  0  0
   -3.6762   -1.1364    0.0000 C   0  0  0  0  0  0  0  0  0  0  0  0
  1  2  1  0
  2  3  1  0
  2  4  1  0
  4  5  1  0
  5  6  2  0
  6  7  1  0
  7  8  1  0
  8  9  2  0
  9 10  1  0
 10 11  2  0
 11 12  1  0
 12 13  1  1
 13 14  2  0
 13 15  1  0
 12 16  1  0
 16 17  1  0
  7 18  2  0
 18 19  1  0
 19  4  2  0
 17 10  1  0
M  END
>  <compound_id>  (131) 
PB02

>  <name>  (131) 
DmaVLuc

>  <structural_class>  (131) 
pi-Extended luciferins retaining the benzothiazole

>  <subfamily>  (131) 
benzene

>  <smiles>  (131) 
CN(C)c1ccc(/C=C/C2=N[C@@H](C(=O)O)CS2)cc1

>  <inchi>  (131) 
InChI=1S/C14H16N2O2S/c1-16(2)11-6-3-10(4-7-11)5-8-13-15-12(9-19-13)14(17)18/h3-8,12H,9H2,1-2H3,(H,17,18)/b8-5+/t12-/m1/s1

>  <inchikey>  (131) 
KXSQZGQGUAOOAF-FZKGZDJFSA-N

>  <molecular_formula>  (131) 
C14H16N2O2S

>  <iupac_name>  (131) 
(4S)-2-[(E)-2-ethenyl]-4,5-dihydro-1,3-thiazole-4-carboxylic acid

$$$$
PB03
     RDKit          2D

 21 23  0  0  0  0  0  0  0  0999 V2000
   -0.5642    2.2002    0.0000 N   0  0  0  0  0  0  0  0  0  0  0  0
   -0.1518    0.7580    0.0000 C   0  0  0  0  0  0  0  0  0  0  0  0
   -1.1945   -0.3203    0.0000 C   0  0  0  0  0  0  0  0  0  0  0  0
   -2.6497    0.0436    0.0000 C   0  0  0  0  0  0  0  0  0  0  0  0
   -3.7995   -0.9197    0.0000 N   0  0  0  0  0  0  0  0  0  0  0  0
   -5.0710   -0.1240    0.0000 C   0  0  0  0  0  0  0  0  0  0  0  0
   -6.4621   -0.6849    0.0000 C   0  0  0  0  0  0  0  0  0  0  0  0
   -6.6719   -2.1701    0.0000 O   0  0  0  0  0  0  0  0  0  0  0  0
   -7.6435    0.2394    0.0000 O   0  0  0  0  0  0  0  0  0  0  0  0
   -4.7071    1.3312    0.0000 C   0  0  0  0  0  0  0  0  0  0  0  0
   -3.2106    1.4348    0.0000 S   0  0  0  0  0  0  0  0  0  0  0  0
    1.3034    0.3941    0.0000 C   0  0  0  0  0  0  0  0  0  0  0  0
    1.8643   -0.9971    0.0000 N   0  0  0  0  0  0  0  0  0  0  0  0
    3.3608   -0.8935    0.0000 C   0  0  0  0  0  0  0  0  0  0  0  0
    4.4390   -1.9363    0.0000 C   0  0  0  0  0  0  0  0  0  0  0  0
    5.8812   -1.5238    0.0000 C   0  0  0  0  0  0  0  0  0  0  0  0
    6.2451   -0.0686    0.0000 C   0  0  0  0  0  0  0  0  0  0  0  0
    7.6873    0.3438    0.0000 O   0  0  0  0  0  0  0  0  0  0  0  0
    5.1669    0.9741    0.0000 C   0  0  0  0  0  0  0  0  0  0  0  0
    3.7247    0.5617    0.0000 C   0  0  0  0  0  0  0  0  0  0  0  0
    2.4532    1.3575    0.0000 S   0  0  0  0  0  0  0  0  0  0  0  0
  1  2  1  0
  2  3  2  0
  3  4  1  0
  4  5  2  0
  5  6  1  0
  6  7  1  0
  7  8  2  0
  7  9  1  0
  6 10  1  0
 10 11  1  0
  2 12  1  0
 12 13  2  0
 13 14  1  0
 14 15  1  0
 15 16  2  0
 16 17  1  0
 17 18  1  0
 17 19  2  0
 19 20  1  0
 20 21  1  0
 11  4  1  0
 21 12  1  0
 20 14  2  0
M  END
>  <compound_id>  (132) 
PB03

>  <name>  (132) 
Enamine-infraluciferin

>  <structural_class>  (132) 
pi-Extended luciferins retaining the benzothiazole

>  <subfamily>  (132) 
benzothiazole

>  <smiles>  (132) 
N/C(=C\C1=NC(C(=O)O)CS1)c1nc2ccc(O)cc2s1

>  <inchi>  (132) 
InChI=1S/C13H11N3O3S2/c14-7(4-11-15-9(5-20-11)13(18)19)12-16-8-2-1-6(17)3-10(8)21-12/h1-4,9,17H,5,14H2,(H,18,19)/b7-4-

>  <inchikey>  (132) 
XMLPKABDZBQAPY-DAXSKMNVSA-N

>  <molecular_formula>  (132) 
C13H11N3O3S2

>  <stereochemistry>  (132) 
racemate

$$$$
PB04
     RDKit          2D

 20 22  0  0  0  0  0  0  0  0999 V2000
   -7.5132    0.4636    0.0000 O   0  0  0  0  0  0  0  0  0  0  0  0
   -6.1040    0.9775    0.0000 C   0  0  0  0  0  0  0  0  0  0  0  0
   -5.8445    2.4549    0.0000 O   0  0  0  0  0  0  0  0  0  0  0  0
   -4.9543    0.0141    0.0000 C   0  0  0  0  0  0  0  0  0  0  0  0
   -5.0580   -1.4823    0.0000 C   0  0  0  0  0  0  0  0  0  0  0  0
   -3.6668   -2.0433    0.0000 S   0  0  0  0  0  0  0  0  0  0  0  0
   -2.7034   -0.8936    0.0000 C   0  0  0  0  0  0  0  0  0  0  0  0
   -1.2070   -0.9973    0.0000 C   0  0  0  0  0  0  0  0  0  0  0  0
   -0.3690    0.2468    0.0000 C   0  0  0  0  0  0  0  0  0  0  0  0
    1.1274    0.1432    0.0000 C   0  0  0  0  0  0  0  0  0  0  0  0
    1.9231   -1.1284    0.0000 N   0  0  0  0  0  0  0  0  0  0  0  0
    3.3783   -0.7646    0.0000 C   0  0  0  0  0  0  0  0  0  0  0  0
    4.6224   -1.6025    0.0000 C   0  0  0  0  0  0  0  0  0  0  0  0
    5.9702   -0.9441    0.0000 C   0  0  0  0  0  0  0  0  0  0  0  0
    6.0738    0.5523    0.0000 C   0  0  0  0  0  0  0  0  0  0  0  0
    7.4216    1.2108    0.0000 O   0  0  0  0  0  0  0  0  0  0  0  0
    4.8297    1.3903    0.0000 C   0  0  0  0  0  0  0  0  0  0  0  0
    3.4820    0.7319    0.0000 C   0  0  0  0  0  0  0  0  0  0  0  0
    2.0908    1.2929    0.0000 S   0  0  0  0  0  0  0  0  0  0  0  0
   -3.4991    0.3779    0.0000 N   0  0  0  0  0  0  0  0  0  0  0  0
  1  2  2  0
  2  3  1  0
  4  2  1  6
  4  5  1  0
  5  6  1  0
  6  7  1  0
  7  8  1  0
  8  9  2  0
  9 10  1  0
 10 11  2  0
 11 12  1  0
 12 13  1  0
 13 14  2  0
 14 15  1  0
 15 16  1  0
 15 17  2  0
 17 18  1  0
 18 19  1  0
  7 20  2  0
 20  4  1  0
 19 10  1  0
 18 12  2  0
M  END
>  <compound_id>  (133) 
PB04

>  <name>  (133) 
Infraluciferin

>  <structural_class>  (133) 
pi-Extended luciferins retaining the benzothiazole

>  <subfamily>  (133) 
benzothiazole

>  <smiles>  (133) 
O=C(O)[C@H]1CSC(/C=C/c2nc3ccc(O)cc3s2)=N1

>  <inchi>  (133) 
InChI=1S/C13H10N2O3S2/c16-7-1-2-8-10(5-7)20-12(14-8)4-3-11-15-9(6-19-11)13(17)18/h1-5,9,16H,6H2,(H,17,18)/b4-3+/t9-/m1/s1

>  <inchikey>  (133) 
NYOZDHLDCWALEQ-CDAZIORVSA-N

>  <molecular_formula>  (133) 
C13H10N2O3S2

>  <iupac_name>  (133) 
(4S)-2--4,5-dihydro-1,3-thiazole-4-carboxylic acid (Jathoul2022, Figure 1 legend); Anderson2017 names it 6-hydroxy-2-(2-(4S-carboxy-4,5-dihydrothiazol-2-yl)ethenyl)benzothiazole

$$$$
PB05
     RDKit          2D

 26 28  0  0  0  0  0  0  0  0999 V2000
   -6.3089    3.5118    0.0000 C   0  0  0  0  0  0  0  0  0  0  0  0
   -5.8448    2.0854    0.0000 C   0  0  0  0  0  0  0  0  0  0  0  0
   -4.3775    1.7741    0.0000 C   0  0  0  0  0  0  0  0  0  0  0  0
   -3.9134    0.3477    0.0000 C   0  0  0  0  0  0  0  0  0  0  0  0
   -4.9166   -0.7674    0.0000 C   0  0  0  0  0  0  0  0  0  0  0  0
   -6.3840   -0.4562    0.0000 N   0  0  0  0  0  0  0  0  0  0  0  0
   -7.3872   -1.5713    0.0000 C   0  0  0  0  0  0  0  0  0  0  0  0
   -6.8481    0.9702    0.0000 C   0  0  0  0  0  0  0  0  0  0  0  0
   -4.4525   -2.1938    0.0000 C   0  0  0  0  0  0  0  0  0  0  0  0
   -2.9852   -2.5051    0.0000 C   0  0  0  0  0  0  0  0  0  0  0  0
   -1.9819   -1.3900    0.0000 C   0  0  0  0  0  0  0  0  0  0  0  0
   -0.5146   -1.7013    0.0000 C   0  0  0  0  0  0  0  0  0  0  0  0
    0.4887   -0.5862    0.0000 C   0  0  0  0  0  0  0  0  0  0  0  0
    1.9560   -0.8974    0.0000 C   0  0  0  0  0  0  0  0  0  0  0  0
    2.9593    0.2177    0.0000 C   0  0  0  0  0  0  0  0  0  0  0  0
    4.4266   -0.0936    0.0000 C   0  0  0  0  0  0  0  0  0  0  0  0
    5.5409    0.9105    0.0000 N   0  0  0  0  0  0  0  0  0  0  0  0
    6.8403    0.1611    0.0000 C   0  0  0  0  0  0  0  0  0  0  0  0
    8.2103    0.7717    0.0000 C   0  0  0  0  0  0  0  0  0  0  0  0
    8.3665    2.2635    0.0000 O   0  0  0  0  0  0  0  0  0  0  0  0
    9.4242   -0.1095    0.0000 O   0  0  0  0  0  0  0  0  0  0  0  0
    6.5290   -1.3063    0.0000 C   0  0  0  0  0  0  0  0  0  0  0  0
    5.0373   -1.4637    0.0000 S   0  0  0  0  0  0  0  0  0  0  0  0
    0.0246    0.8402    0.0000 C   0  0  0  0  0  0  0  0  0  0  0  0
   -1.4428    1.1515    0.0000 C   0  0  0  0  0  0  0  0  0  0  0  0
   -2.4460    0.0364    0.0000 C   0  0  0  0  0  0  0  0  0  0  0  0
  1  2  2  0
  2  3  1  0
  3  4  1  0
  4  5  1  0
  5  6  1  0
  6  7  1  0
  6  8  1  0
  5  9  2  0
  9 10  1  0
 10 11  2  0
 11 12  1  0
 12 13  2  0
 13 14  1  0
 14 15  2  0
 15 16  1  0
 16 17  2  0
 17 18  1  0
 18 19  1  1
 19 20  2  0
 19 21  1  0
 18 22  1  0
 22 23  1  0
 13 24  1  0
 24 25  2  0
 25 26  1  0
 26  4  2  0
 26 11  1  0
 23 16  1  0
M  END
>  <compound_id>  (134) 
PB05

>  <name>  (134) 
Kitada 2020 analogue 3

>  <structural_class>  (134) 
pi-Extended luciferins retaining the benzothiazole

>  <subfamily>  (134) 
naphthalene

>  <smiles>  (134) 
C=CCc1c(N(C)C)ccc2cc(/C=C/C3=N[C@@H](C(=O)O)CS3)ccc12

>  <inchi>  (134) 
InChI=1S/C21H22N2O2S/c1-4-5-17-16-9-6-14(12-15(16)8-10-19(17)23(2)3)7-11-20-22-18(13-26-20)21(24)25/h4,6-12,18H,1,5,13H2,2-3H3,(H,24,25)/b11-7+/t18-/m1/s1

>  <inchikey>  (134) 
VGLBLFCTGFVTEW-JGZYNSJSSA-N

>  <molecular_formula>  (134) 
C21H22N2O2S

>  <iupac_name>  (134) 
not given in the paper; described as the 5-allyl-2-naphthylethenyl analogue with a dimethylamino group at C6

$$$$
PB06
     RDKit          2D

 24 27  0  0  0  0  0  0  0  0999 V2000
   -8.6446    0.2824    0.0000 O   0  0  0  0  0  0  0  0  0  0  0  0
   -7.3068    0.9609    0.0000 C   0  0  0  0  0  0  0  0  0  0  0  0
   -7.2256    2.4587    0.0000 O   0  0  0  0  0  0  0  0  0  0  0  0
   -6.0504    0.1416    0.0000 C   0  0  0  0  0  0  0  0  0  0  0  0
   -5.9746   -1.3565    0.0000 C   0  0  0  0  0  0  0  0  0  0  0  0
   -4.5265   -1.7474    0.0000 S   0  0  0  0  0  0  0  0  0  0  0  0
   -3.7072   -0.4909    0.0000 C   0  0  0  0  0  0  0  0  0  0  0  0
   -2.2091   -0.4152    0.0000 C   0  0  0  0  0  0  0  0  0  0  0  0
   -1.3945   -1.6748    0.0000 C   0  0  0  0  0  0  0  0  0  0  0  0
    0.1036   -1.5990    0.0000 C   0  0  0  0  0  0  0  0  0  0  0  0
    0.7871   -0.2638    0.0000 C   0  0  0  0  0  0  0  0  0  0  0  0
    2.2852   -0.1881    0.0000 C   0  0  0  0  0  0  0  0  0  0  0  0
    3.2270   -1.3556    0.0000 N   0  0  0  0  0  0  0  0  0  0  0  0
    4.6283   -0.8206    0.0000 C   0  0  0  0  0  0  0  0  0  0  0  0
    5.9636   -1.5041    0.0000 C   0  0  0  0  0  0  0  0  0  0  0  0
    7.2231   -0.6895    0.0000 C   0  0  0  0  0  0  0  0  0  0  0  0
    7.1474    0.8086    0.0000 C   0  0  0  0  0  0  0  0  0  0  0  0
    8.4069    1.6232    0.0000 O   0  0  0  0  0  0  0  0  0  0  0  0
    5.8122    1.4921    0.0000 C   0  0  0  0  0  0  0  0  0  0  0  0
    4.5526    0.6775    0.0000 C   0  0  0  0  0  0  0  0  0  0  0  0
    3.1045    1.0684    0.0000 S   0  0  0  0  0  0  0  0  0  0  0  0
   -0.0275    0.9957    0.0000 C   0  0  0  0  0  0  0  0  0  0  0  0
   -1.5256    0.9200    0.0000 C   0  0  0  0  0  0  0  0  0  0  0  0
   -4.6490    0.6765    0.0000 N   0  0  0  0  0  0  0  0  0  0  0  0
  1  2  2  0
  2  3  1  0
  4  2  1  6
  4  5  1  0
  5  6  1  0
  6  7  1  0
  7  8  1  0
  8  9  1  0
  9 10  2  0
 10 11  1  0
 11 12  1  0
 12 13  2  0
 13 14  1  0
 14 15  1  0
 15 16  2  0
 16 17  1  0
 17 18  1  0
 17 19  2  0
 19 20  1  0
 20 21  1  0
 11 22  2  0
 22 23  1  0
  7 24  2  0
 24  4  1  0
 23  8  2  0
 21 12  1  0
 20 14  2  0
M  END
>  <compound_id>  (135) 
PB06

>  <name>  (135) 
Ph-Luc

>  <structural_class>  (135) 
pi-Extended luciferins retaining the benzothiazole

>  <subfamily>  (135) 
benzothiazole

>  <smiles>  (135) 
O=C(O)[C@H]1CSC(c2ccc(-c3nc4ccc(O)cc4s3)cc2)=N1

>  <inchi>  (135) 
InChI=1S/C17H12N2O3S2/c20-11-5-6-12-14(7-11)24-16(18-12)10-3-1-9(2-4-10)15-19-13(8-23-15)17(21)22/h1-7,13,20H,8H2,(H,21,22)/t13-/m1/s1

>  <inchikey>  (135) 
DBTAPTPFKOMGJM-CYBMUJFWSA-N

>  <molecular_formula>  (135) 
C17H12N2O3S2

>  <iupac_name>  (135) 
(S)-2-(4-(6-Hydroxybenzothiazol-2-yl)phenyl)-4,5-dihydrothiazole-4-carboxylic acid

$$$$
PB07
     RDKit          2D

 25 28  0  0  0  0  0  0  0  0999 V2000
   -8.6704    0.2107    0.0000 O   0  0  0  0  0  0  0  0  0  0  0  0
   -7.3309    0.8858    0.0000 C   0  0  0  0  0  0  0  0  0  0  0  0
   -7.2459    2.3834    0.0000 O   0  0  0  0  0  0  0  0  0  0  0  0
   -6.0765    0.0634    0.0000 C   0  0  0  0  0  0  0  0  0  0  0  0
   -6.0045   -1.4348    0.0000 C   0  0  0  0  0  0  0  0  0  0  0  0
   -4.5573   -1.8294    0.0000 S   0  0  0  0  0  0  0  0  0  0  0  0
   -3.7349   -0.5749    0.0000 C   0  0  0  0  0  0  0  0  0  0  0  0
   -2.2366   -0.5029    0.0000 C   0  0  0  0  0  0  0  0  0  0  0  0
   -1.4251   -1.7645    0.0000 C   0  0  0  0  0  0  0  0  0  0  0  0
    0.0732   -1.6925    0.0000 C   0  0  0  0  0  0  0  0  0  0  0  0
    0.7600   -0.3589    0.0000 C   0  0  0  0  0  0  0  0  0  0  0  0
    2.2582   -0.2869    0.0000 C   0  0  0  0  0  0  0  0  0  0  0  0
    3.1971   -1.4567    0.0000 N   0  0  0  0  0  0  0  0  0  0  0  0
    4.5998   -0.9253    0.0000 C   0  0  0  0  0  0  0  0  0  0  0  0
    5.9334   -1.6121    0.0000 C   0  0  0  0  0  0  0  0  0  0  0  0
    7.1949   -0.8006    0.0000 C   0  0  0  0  0  0  0  0  0  0  0  0
    7.1229    0.6977    0.0000 C   0  0  0  0  0  0  0  0  0  0  0  0
    8.3845    1.5092    0.0000 O   0  0  0  0  0  0  0  0  0  0  0  0
    5.7894    1.3845    0.0000 C   0  0  0  0  0  0  0  0  0  0  0  0
    4.5278    0.5730    0.0000 C   0  0  0  0  0  0  0  0  0  0  0  0
    3.0806    0.9675    0.0000 S   0  0  0  0  0  0  0  0  0  0  0  0
   -0.0515    0.9026    0.0000 C   0  0  0  0  0  0  0  0  0  0  0  0
    0.6353    2.2362    0.0000 O   0  0  0  0  0  0  0  0  0  0  0  0
   -1.5498    0.8306    0.0000 C   0  0  0  0  0  0  0  0  0  0  0  0
   -4.6738    0.5949    0.0000 N   0  0  0  0  0  0  0  0  0  0  0  0
  1  2  2  0
  2  3  1  0
  4  2  1  6
  4  5  1  0
  5  6  1  0
  6  7  1  0
  7  8  1  0
  8  9  1  0
  9 10  2  0
 10 11  1  0
 11 12  1  0
 12 13  2  0
 13 14  1  0
 14 15  1  0
 15 16  2  0
 16 17  1  0
 17 18  1  0
 17 19  2  0
 19 20  1  0
 20 21  1  0
 11 22  2  0
 22 23  1  0
 22 24  1  0
  7 25  2  0
 25  4  1  0
 24  8  2  0
 21 12  1  0
 20 14  2  0
M  END
>  <compound_id>  (136) 
PB07

>  <name>  (136) 
PhOH-Luc

>  <structural_class>  (136) 
pi-Extended luciferins retaining the benzothiazole

>  <subfamily>  (136) 
benzothiazole

>  <smiles>  (136) 
O=C(O)[C@H]1CSC(c2ccc(-c3nc4ccc(O)cc4s3)c(O)c2)=N1

>  <inchi>  (136) 
InChI=1S/C17H12N2O4S2/c20-9-2-4-11-14(6-9)25-16(18-11)10-3-1-8(5-13(10)21)15-19-12(7-24-15)17(22)23/h1-6,12,20-21H,7H2,(H,22,23)/t12-/m1/s1

>  <inchikey>  (136) 
PLHLOIYEGDLGGE-GFCCVEGCSA-N

>  <molecular_formula>  (136) 
C17H12N2O4S2

>  <iupac_name>  (136) 
(S)-2-(3-hydroxy-4-(6-hydroxybenzothiazol-2-yl)phenyl)-4,5-dihydrothiazole-4-carboxylic acid

$$$$
PB08
     RDKit          2D

 22 25  0  0  0  0  0  0  0  0999 V2000
   -7.5558    0.2050    0.0000 O   0  0  0  0  0  0  0  0  0  0  0  0
   -6.2048    0.8567    0.0000 C   0  0  0  0  0  0  0  0  0  0  0  0
   -6.0937    2.3526    0.0000 O   0  0  0  0  0  0  0  0  0  0  0  0
   -4.9648    0.0126    0.0000 C   0  0  0  0  0  0  0  0  0  0  0  0
   -4.9189   -1.4867    0.0000 C   0  0  0  0  0  0  0  0  0  0  0  0
   -3.4788   -1.9064    0.0000 S   0  0  0  0  0  0  0  0  0  0  0  0
   -2.6347   -0.6664    0.0000 C   0  0  0  0  0  0  0  0  0  0  0  0
   -1.1354   -0.6205    0.0000 C   0  0  0  0  0  0  0  0  0  0  0  0
   -0.3460   -1.8960    0.0000 C   0  0  0  0  0  0  0  0  0  0  0  0
    1.1533   -1.8501    0.0000 C   0  0  0  0  0  0  0  0  0  0  0  0
    1.8632   -0.5287    0.0000 N   0  0  0  0  0  0  0  0  0  0  0  0
    1.0738    0.7467    0.0000 C   0  0  0  0  0  0  0  0  0  0  0  0
   -0.4255    0.7009    0.0000 C   0  0  0  0  0  0  0  0  0  0  0  0
    2.0429    1.8916    0.0000 N   0  0  0  0  0  0  0  0  0  0  0  0
    3.4313    1.3238    0.0000 C   0  0  0  0  0  0  0  0  0  0  0  0
    4.7823    1.9755    0.0000 C   0  0  0  0  0  0  0  0  0  0  0  0
    6.0222    1.1314    0.0000 C   0  0  0  0  0  0  0  0  0  0  0  0
    5.9111   -0.3645    0.0000 C   0  0  0  0  0  0  0  0  0  0  0  0
    7.1511   -1.2087    0.0000 O   0  0  0  0  0  0  0  0  0  0  0  0
    4.5601   -1.0163    0.0000 C   0  0  0  0  0  0  0  0  0  0  0  0
    3.3202   -0.1721    0.0000 C   0  0  0  0  0  0  0  0  0  0  0  0
   -3.5531    0.5196    0.0000 N   0  0  0  0  0  0  0  0  0  0  0  0
  1  2  2  0
  2  3  1  0
  2  4  1  0
  4  5  1  0
  5  6  1  0
  6  7  1  0
  7  8  1  0
  8  9  1  0
  9 10  2  0
 10 11  1  0
 11 12  1  0
 12 13  1  0
 12 14  2  0
 14 15  1  0
 15 16  1  0
 16 17  2  0
 17 18  1  0
 18 19  1  0
 18 20  2  0
 20 21  1  0
  7 22  2  0
 22  4  1  0
 13  8  2  0
 21 15  2  0
 21 11  1  0
M  END
>  <compound_id>  (137) 
PB08

>  <name>  (137) 
DL-PBIiLH2, pyridobenzimidazole infraluciferin

>  <structural_class>  (137) 
pi-Extended luciferins retaining the benzothiazole

>  <subfamily>  (137) 
pyridine

>  <smiles>  (137) 
O=C(O)C1CSC(c2ccn3c(c2)nc2ccc(O)cc23)=N1

>  <inchi>  (137) 
InChI=1S/C15H11N3O3S/c19-9-1-2-10-12(6-9)18-4-3-8(5-13(18)16-10)14-17-11(7-22-14)15(20)21/h1-6,11,19H,7H2,(H,20,21)

>  <inchikey>  (137) 
UEYINKHYLGIKNC-UHFFFAOYSA-N

>  <molecular_formula>  (137) 
C15H11N3O3S

>  <iupac_name>  (137) 
2-(8-hydroxybenzoimidazopyridin-3-yl)-4,5-dihydrothiazole-4-carboxylic acid

>  <stereochemistry>  (137) 
racemate

$$$$
PB09
     RDKit          2D

 27 30  0  0  0  0  0  0  0  0999 V2000
   -9.4499   -0.2153    0.0000 C   0  0  0  0  0  0  0  0  0  0  0  0
   -8.2288   -1.0865    0.0000 O   0  0  0  0  0  0  0  0  0  0  0  0
   -6.8638   -0.4646    0.0000 C   0  0  0  0  0  0  0  0  0  0  0  0
   -6.7198    1.0284    0.0000 C   0  0  0  0  0  0  0  0  0  0  0  0
   -5.3548    1.6503    0.0000 C   0  0  0  0  0  0  0  0  0  0  0  0
   -4.1338    0.7791    0.0000 C   0  0  0  0  0  0  0  0  0  0  0  0
   -2.6693    1.1036    0.0000 N   0  0  0  0  0  0  0  0  0  0  0  0
   -1.9081   -0.1889    0.0000 C   0  0  0  0  0  0  0  0  0  0  0  0
   -0.4150   -0.3329    0.0000 C   0  0  0  0  0  0  0  0  0  0  0  0
    0.2068   -1.6979    0.0000 C   0  0  0  0  0  0  0  0  0  0  0  0
    1.6999   -1.8419    0.0000 C   0  0  0  0  0  0  0  0  0  0  0  0
    2.5711   -0.6208    0.0000 C   0  0  0  0  0  0  0  0  0  0  0  0
    4.0642   -0.7647    0.0000 C   0  0  0  0  0  0  0  0  0  0  0  0
    5.0583    0.3586    0.0000 N   0  0  0  0  0  0  0  0  0  0  0  0
    6.4338   -0.2397    0.0000 C   0  0  0  0  0  0  0  0  0  0  0  0
    7.7263    0.5215    0.0000 C   0  0  0  0  0  0  0  0  0  0  0  0
    7.7134    2.0214    0.0000 O   0  0  0  0  0  0  0  0  0  0  0  0
    9.0318   -0.2173    0.0000 O   0  0  0  0  0  0  0  0  0  0  0  0
    6.2898   -1.7328    0.0000 C   0  0  0  0  0  0  0  0  0  0  0  0
    4.8253   -2.0573    0.0000 S   0  0  0  0  0  0  0  0  0  0  0  0
    1.9492    0.7442    0.0000 C   0  0  0  0  0  0  0  0  0  0  0  0
    0.4562    0.8882    0.0000 C   0  0  0  0  0  0  0  0  0  0  0  0
   -0.1657    2.2532    0.0000 O   0  0  0  0  0  0  0  0  0  0  0  0
    0.7055    3.4743    0.0000 C   0  0  0  0  0  0  0  0  0  0  0  0
   -2.9022   -1.3123    0.0000 S   0  0  0  0  0  0  0  0  0  0  0  0
   -4.2777   -0.7140    0.0000 C   0  0  0  0  0  0  0  0  0  0  0  0
   -5.6427   -1.3358    0.0000 C   0  0  0  0  0  0  0  0  0  0  0  0
  1  2  1  0
  2  3  1  0
  3  4  1  0
  4  5  2  0
  5  6  1  0
  6  7  1  0
  7  8  2  0
  8  9  1  0
  9 10  1  0
 10 11  2  0
 11 12  1  0
 12 13  1  0
 13 14  2  0
 14 15  1  0
 15 16  1  1
 16 17  2  0
 16 18  1  0
 15 19  1  0
 19 20  1  0
 12 21  2  0
 21 22  1  0
 22 23  1  0
 23 24  1  0
  8 25  1  0
 25 26  1  0
 26 27  1  0
 27  3  2  0
 26  6  2  0
 22  9  2  0
 20 13  1  0
M  END
>  <compound_id>  (138) 
PB09

>  <name>  (138) 
S5 (bis-methylated PhOH-Luc)

>  <structural_class>  (138) 
pi-Extended luciferins retaining the benzothiazole

>  <subfamily>  (138) 
benzothiazole

>  <smiles>  (138) 
COc1ccc2nc(-c3ccc(C4=N[C@@H](C(=O)O)CS4)cc3OC)sc2c1

>  <inchi>  (138) 
InChI=1S/C19H16N2O4S2/c1-24-11-4-6-13-16(8-11)27-18(20-13)12-5-3-10(7-15(12)25-2)17-21-14(9-26-17)19(22)23/h3-8,14H,9H2,1-2H3,(H,22,23)/t14-/m1/s1

>  <inchikey>  (138) 
TXVVKLCYTGBDQT-CQSZACIVSA-N

>  <molecular_formula>  (138) 
C19H16N2O4S2

>  <iupac_name>  (138) 
(S)-2-(3-Methoxy-4-(6-methoxybenzothiazol-2-yl)phenyl)-4,5-dihydrothiazole-4-carboxylic acid

$$$$
PB10
     RDKit          2D

 26 29  0  0  0  0  0  0  0  0999 V2000
   -9.4224   -0.1165    0.0000 C   0  0  0  0  0  0  0  0  0  0  0  0
   -8.1981   -0.9832    0.0000 O   0  0  0  0  0  0  0  0  0  0  0  0
   -6.8354   -0.3563    0.0000 C   0  0  0  0  0  0  0  0  0  0  0  0
   -6.6970    1.1373    0.0000 C   0  0  0  0  0  0  0  0  0  0  0  0
   -5.3342    1.7642    0.0000 C   0  0  0  0  0  0  0  0  0  0  0  0
   -4.1100    0.8976    0.0000 C   0  0  0  0  0  0  0  0  0  0  0  0
   -2.6467    1.2274    0.0000 N   0  0  0  0  0  0  0  0  0  0  0  0
   -1.8808   -0.0623    0.0000 C   0  0  0  0  0  0  0  0  0  0  0  0
   -0.3872   -0.2007    0.0000 C   0  0  0  0  0  0  0  0  0  0  0  0
    0.2397   -1.5634    0.0000 C   0  0  0  0  0  0  0  0  0  0  0  0
    1.7333   -1.7018    0.0000 C   0  0  0  0  0  0  0  0  0  0  0  0
    2.6000   -0.4776    0.0000 C   0  0  0  0  0  0  0  0  0  0  0  0
    4.0936   -0.6160    0.0000 C   0  0  0  0  0  0  0  0  0  0  0  0
    5.0835    0.5110    0.0000 N   0  0  0  0  0  0  0  0  0  0  0  0
    6.4613   -0.0822    0.0000 C   0  0  0  0  0  0  0  0  0  0  0  0
    7.7510    0.6837    0.0000 C   0  0  0  0  0  0  0  0  0  0  0  0
    7.7325    2.1836    0.0000 O   0  0  0  0  0  0  0  0  0  0  0  0
    9.0591   -0.0502    0.0000 O   0  0  0  0  0  0  0  0  0  0  0  0
    6.3228   -1.5758    0.0000 C   0  0  0  0  0  0  0  0  0  0  0  0
    4.8596   -1.9057    0.0000 S   0  0  0  0  0  0  0  0  0  0  0  0
    1.9731    0.8852    0.0000 C   0  0  0  0  0  0  0  0  0  0  0  0
    0.4795    1.0236    0.0000 C   0  0  0  0  0  0  0  0  0  0  0  0
   -0.1474    2.3863    0.0000 O   0  0  0  0  0  0  0  0  0  0  0  0
   -2.8707   -1.1892    0.0000 S   0  0  0  0  0  0  0  0  0  0  0  0
   -4.2484   -0.5960    0.0000 C   0  0  0  0  0  0  0  0  0  0  0  0
   -5.6111   -1.2230    0.0000 C   0  0  0  0  0  0  0  0  0  0  0  0
  1  2  1  0
  2  3  1  0
  3  4  1  0
  4  5  2  0
  5  6  1  0
  6  7  1  0
  7  8  2  0
  8  9  1  0
  9 10  1  0
 10 11  2  0
 11 12  1  0
 12 13  1  0
 13 14  2  0
 14 15  1  0
 15 16  1  1
 16 17  2  0
 16 18  1  0
 15 19  1  0
 19 20  1  0
 12 21  2  0
 21 22  1  0
 22 23  1  0
  8 24  1  0
 24 25  1  0
 25 26  1  0
 26  3  2  0
 25  6  2  0
 22  9  2  0
 20 13  1  0
M  END
>  <compound_id>  (139) 
PB10

>  <name>  (139) 
S6 (6'-OMe PhOH-Luc)

>  <structural_class>  (139) 
pi-Extended luciferins retaining the benzothiazole

>  <subfamily>  (139) 
benzothiazole

>  <smiles>  (139) 
COc1ccc2nc(-c3ccc(C4=N[C@@H](C(=O)O)CS4)cc3O)sc2c1

>  <inchi>  (139) 
InChI=1S/C18H14N2O4S2/c1-24-10-3-5-12-15(7-10)26-17(19-12)11-4-2-9(6-14(11)21)16-20-13(8-25-16)18(22)23/h2-7,13,21H,8H2,1H3,(H,22,23)/t13-/m1/s1

>  <inchikey>  (139) 
YLQDAQFGLBRTGC-CYBMUJFWSA-N

>  <molecular_formula>  (139) 
C18H14N2O4S2

>  <iupac_name>  (139) 
(S)-2-(3-Hydroxy-4-(6-methoxybenzothiazol-2-yl)phenyl)-4,5-dihydrothiazole-4-carboxylic acid

$$$$
PB11
     RDKit          2D

 26 29  0  0  0  0  0  0  0  0999 V2000
   -0.3295   -3.4672    0.0000 C   0  0  0  0  0  0  0  0  0  0  0  0
    0.5373   -2.2430    0.0000 O   0  0  0  0  0  0  0  0  0  0  0  0
   -0.0895   -0.8802    0.0000 C   0  0  0  0  0  0  0  0  0  0  0  0
   -1.5831   -0.7417    0.0000 C   0  0  0  0  0  0  0  0  0  0  0  0
   -2.2099    0.6211    0.0000 C   0  0  0  0  0  0  0  0  0  0  0  0
   -3.7035    0.7596    0.0000 C   0  0  0  0  0  0  0  0  0  0  0  0
   -4.6935   -0.3673    0.0000 N   0  0  0  0  0  0  0  0  0  0  0  0
   -6.0712    0.2260    0.0000 C   0  0  0  0  0  0  0  0  0  0  0  0
   -7.3609   -0.5398    0.0000 C   0  0  0  0  0  0  0  0  0  0  0  0
   -7.3426   -2.0397    0.0000 O   0  0  0  0  0  0  0  0  0  0  0  0
   -8.6691    0.1943    0.0000 O   0  0  0  0  0  0  0  0  0  0  0  0
   -5.9326    1.7196    0.0000 C   0  0  0  0  0  0  0  0  0  0  0  0
   -4.4693    2.0494    0.0000 S   0  0  0  0  0  0  0  0  0  0  0  0
   -1.3431    1.8453    0.0000 C   0  0  0  0  0  0  0  0  0  0  0  0
    0.1504    1.7067    0.0000 C   0  0  0  0  0  0  0  0  0  0  0  0
    0.7773    0.3440    0.0000 C   0  0  0  0  0  0  0  0  0  0  0  0
    2.2708    0.2054    0.0000 C   0  0  0  0  0  0  0  0  0  0  0  0
    3.0367   -1.0843    0.0000 N   0  0  0  0  0  0  0  0  0  0  0  0
    4.5000   -0.7546    0.0000 C   0  0  0  0  0  0  0  0  0  0  0  0
    5.7242   -1.6213    0.0000 C   0  0  0  0  0  0  0  0  0  0  0  0
    7.0869   -0.9945    0.0000 C   0  0  0  0  0  0  0  0  0  0  0  0
    7.2255    0.4991    0.0000 C   0  0  0  0  0  0  0  0  0  0  0  0
    8.5882    1.1259    0.0000 O   0  0  0  0  0  0  0  0  0  0  0  0
    6.0013    1.3658    0.0000 C   0  0  0  0  0  0  0  0  0  0  0  0
    4.6385    0.7390    0.0000 C   0  0  0  0  0  0  0  0  0  0  0  0
    3.2608    1.3323    0.0000 S   0  0  0  0  0  0  0  0  0  0  0  0
  1  2  1  0
  2  3  1  0
  3  4  1  0
  4  5  2  0
  5  6  1  0
  6  7  2  0
  7  8  1  0
  8  9  1  1
  9 10  2  0
  9 11  1  0
  8 12  1  0
 12 13  1  0
  5 14  1  0
 14 15  2  0
 15 16  1  0
 16 17  1  0
 17 18  2  0
 18 19  1  0
 19 20  1  0
 20 21  2  0
 21 22  1  0
 22 23  1  0
 22 24  2  0
 24 25  1  0
 25 26  1  0
 16  3  2  0
 26 17  1  0
 13  6  1  0
 25 19  2  0
M  END
>  <compound_id>  (140) 
PB11

>  <name>  (140) 
S7 (OMe-blocked phenol PhOH-Luc)

>  <structural_class>  (140) 
pi-Extended luciferins retaining the benzothiazole

>  <subfamily>  (140) 
benzothiazole

>  <smiles>  (140) 
COc1cc(C2=N[C@@H](C(=O)O)CS2)ccc1-c1nc2ccc(O)cc2s1

>  <inchi>  (140) 
InChI=1S/C18H14N2O4S2/c1-24-14-6-9(16-20-13(8-25-16)18(22)23)2-4-11(14)17-19-12-5-3-10(21)7-15(12)26-17/h2-7,13,21H,8H2,1H3,(H,22,23)/t13-/m1/s1

>  <inchikey>  (140) 
LPXNBSOOTABAFH-CYBMUJFWSA-N

>  <molecular_formula>  (140) 
C18H14N2O4S2

>  <iupac_name>  (140) 
(S)-2-(3-Methoxy-4-(6-hydroxybenzothiazol-2-yl)phenyl)-4,5-dihydrothiazole-4-carboxylic acid

$$$$
PN01
     RDKit          2D

 24 25  0  0  0  0  0  0  0  0999 V2000
    6.1714   -4.1063    0.0000 C   0  0  0  0  0  0  0  0  0  0  0  0
    5.1135   -3.0429    0.0000 C   0  0  0  0  0  0  0  0  0  0  0  0
    5.5055   -1.5950    0.0000 C   0  0  0  0  0  0  0  0  0  0  0  0
    4.4477   -0.5316    0.0000 C   0  0  0  0  0  0  0  0  0  0  0  0
    2.9978   -0.9160    0.0000 C   0  0  0  0  0  0  0  0  0  0  0  0
    1.9399    0.1474    0.0000 C   0  0  0  0  0  0  0  0  0  0  0  0
    0.4900   -0.2370    0.0000 C   0  0  0  0  0  0  0  0  0  0  0  0
   -0.5679    0.8264    0.0000 C   0  0  0  0  0  0  0  0  0  0  0  0
   -2.0178    0.4420    0.0000 C   0  0  0  0  0  0  0  0  0  0  0  0
   -3.0757    1.5054    0.0000 C   0  0  0  0  0  0  0  0  0  0  0  0
   -4.5256    1.1209    0.0000 C   0  0  0  0  0  0  0  0  0  0  0  0
   -5.0668   -0.2780    0.0000 N   0  0  0  0  0  0  0  0  0  0  0  0
   -6.5645   -0.1956    0.0000 C   0  0  0  0  0  0  0  0  0  0  0  0
   -7.5116   -1.3588    0.0000 C   0  0  0  0  0  0  0  0  0  0  0  0
   -6.9777   -2.7606    0.0000 O   0  0  0  0  0  0  0  0  0  0  0  0
   -8.9925   -1.1203    0.0000 O   0  0  0  0  0  0  0  0  0  0  0  0
   -6.9490    1.2543    0.0000 C   0  0  0  0  0  0  0  0  0  0  0  0
   -5.6888    2.0680    0.0000 S   0  0  0  0  0  0  0  0  0  0  0  0
    2.3319    1.5953    0.0000 C   0  0  0  0  0  0  0  0  0  0  0  0
    3.7818    1.9797    0.0000 C   0  0  0  0  0  0  0  0  0  0  0  0
    4.8397    0.9163    0.0000 C   0  0  0  0  0  0  0  0  0  0  0  0
    6.2896    1.3007    0.0000 N   0  0  0  0  0  0  0  0  0  0  0  0
    6.6816    2.7486    0.0000 C   0  0  0  0  0  0  0  0  0  0  0  0
    7.3475    0.2373    0.0000 C   0  0  0  0  0  0  0  0  0  0  0  0
  1  2  2  0
  2  3  1  0
  3  4  1  0
  4  5  1  0
  5  6  2  0
  6  7  1  0
  7  8  2  0
  8  9  1  0
  9 10  2  0
 10 11  1  0
 11 12  2  0
 12 13  1  0
 13 14  1  1
 14 15  2  0
 14 16  1  0
 13 17  1  0
 17 18  1  0
  6 19  1  0
 19 20  2  0
 20 21  1  0
 21 22  1  0
 22 23  1  0
 22 24  1  0
 21  4  2  0
 18 11  1  0
M  END
>  <compound_id>  (141) 
PN01

>  <name>  (141) 
3'-Allyl-DmaDVLuc

>  <structural_class>  (141) 
pi-Extended luciferins in which the benzothiazole is absent

>  <subfamily>  (141) 
benzene

>  <smiles>  (141) 
C=CCc1cc(/C=C/C=C/C2=N[C@@H](C(=O)O)CS2)ccc1N(C)C

>  <inchi>  (141) 
InChI=1S/C19H22N2O2S/c1-4-7-15-12-14(10-11-17(15)21(2)3)8-5-6-9-18-20-16(13-24-18)19(22)23/h4-6,8-12,16H,1,7,13H2,2-3H3,(H,22,23)/b8-5+,9-6+/t16-/m1/s1

>  <inchikey>  (141) 
QRQJBEYSDAEDKX-KODRQSLMSA-N

>  <molecular_formula>  (141) 
C19H22N2O2S

>  <iupac_name>  (141) 
(4S)-2-[(1E,3E)-4-buta-1,3-dien-1-yl]-4,5-dihydro-1,3-thiazole-4-carboxylic acid

$$$$
PN02
     RDKit          2D

 22 23  0  0  0  0  0  0  0  0999 V2000
    4.6660   -4.2106    0.0000 C   0  0  0  0  0  0  0  0  0  0  0  0
    3.7087   -3.0558    0.0000 C   0  0  0  0  0  0  0  0  0  0  0  0
    4.2302   -1.6493    0.0000 C   0  0  0  0  0  0  0  0  0  0  0  0
    3.2729   -0.4945    0.0000 C   0  0  0  0  0  0  0  0  0  0  0  0
    1.7941   -0.7461    0.0000 C   0  0  0  0  0  0  0  0  0  0  0  0
    0.8369    0.4087    0.0000 C   0  0  0  0  0  0  0  0  0  0  0  0
   -0.6419    0.1571    0.0000 C   0  0  0  0  0  0  0  0  0  0  0  0
   -1.5991    1.3120    0.0000 C   0  0  0  0  0  0  0  0  0  0  0  0
   -3.0779    1.0604    0.0000 C   0  0  0  0  0  0  0  0  0  0  0  0
   -3.7435   -0.2839    0.0000 N   0  0  0  0  0  0  0  0  0  0  0  0
   -5.2276   -0.0662    0.0000 C   0  0  0  0  0  0  0  0  0  0  0  0
   -6.2761   -1.1389    0.0000 C   0  0  0  0  0  0  0  0  0  0  0  0
   -5.8713   -2.5833    0.0000 O   0  0  0  0  0  0  0  0  0  0  0  0
   -7.7293   -0.7673    0.0000 O   0  0  0  0  0  0  0  0  0  0  0  0
   -5.4793    1.4126    0.0000 C   0  0  0  0  0  0  0  0  0  0  0  0
   -4.1506    2.1088    0.0000 S   0  0  0  0  0  0  0  0  0  0  0  0
    1.3584    1.8152    0.0000 C   0  0  0  0  0  0  0  0  0  0  0  0
    2.8371    2.0668    0.0000 C   0  0  0  0  0  0  0  0  0  0  0  0
    3.7944    0.9120    0.0000 C   0  0  0  0  0  0  0  0  0  0  0  0
    5.2731    1.1636    0.0000 N   0  0  0  0  0  0  0  0  0  0  0  0
    5.7946    2.5700    0.0000 C   0  0  0  0  0  0  0  0  0  0  0  0
    6.2304    0.0087    0.0000 C   0  0  0  0  0  0  0  0  0  0  0  0
  1  2  2  0
  2  3  1  0
  3  4  1  0
  4  5  1  0
  5  6  2  0
  6  7  1  0
  7  8  2  0
  8  9  1  0
  9 10  2  0
 10 11  1  0
 11 12  1  1
 12 13  2  0
 12 14  1  0
 11 15  1  0
 15 16  1  0
  6 17  1  0
 17 18  2  0
 18 19  1  0
 19 20  1  0
 20 21  1  0
 20 22  1  0
 19  4  2  0
 16  9  1  0
M  END
>  <compound_id>  (142) 
PN02

>  <name>  (142) 
3'-Allyl-DmaVLuc

>  <structural_class>  (142) 
pi-Extended luciferins in which the benzothiazole is absent

>  <subfamily>  (142) 
benzene

>  <smiles>  (142) 
C=CCc1cc(/C=C/C2=N[C@@H](C(=O)O)CS2)ccc1N(C)C

>  <inchi>  (142) 
InChI=1S/C17H20N2O2S/c1-4-5-13-10-12(6-8-15(13)19(2)3)7-9-16-18-14(11-22-16)17(20)21/h4,6-10,14H,1,5,11H2,2-3H3,(H,20,21)/b9-7+/t14-/m1/s1

>  <inchikey>  (142) 
YFUZAMIHAASAPZ-RCQQVGEISA-N

>  <molecular_formula>  (142) 
C17H20N2O2S

>  <iupac_name>  (142) 
(4S)-2-[(E)-2-ethenyl]-4,5-dihydro-1,3-thiazole-4-carboxylic acid

$$$$
PN03
     RDKit          2D

 24 26  0  0  0  0  0  0  0  0999 V2000
   -6.9349    3.4210    0.0000 C   0  0  0  0  0  0  0  0  0  0  0  0
   -6.4572    1.9990    0.0000 C   0  0  0  0  0  0  0  0  0  0  0  0
   -4.9870    1.7017    0.0000 C   0  0  0  0  0  0  0  0  0  0  0  0
   -4.5094    0.2798    0.0000 C   0  0  0  0  0  0  0  0  0  0  0  0
   -5.5020   -0.8448    0.0000 C   0  0  0  0  0  0  0  0  0  0  0  0
   -6.9722   -0.5475    0.0000 O   0  0  0  0  0  0  0  0  0  0  0  0
   -5.0244   -2.2667    0.0000 C   0  0  0  0  0  0  0  0  0  0  0  0
   -3.5541   -2.5641    0.0000 C   0  0  0  0  0  0  0  0  0  0  0  0
   -2.5615   -1.4394    0.0000 C   0  0  0  0  0  0  0  0  0  0  0  0
   -1.0913   -1.7368    0.0000 C   0  0  0  0  0  0  0  0  0  0  0  0
   -0.0987   -0.6122    0.0000 C   0  0  0  0  0  0  0  0  0  0  0  0
    1.3716   -0.9095    0.0000 C   0  0  0  0  0  0  0  0  0  0  0  0
    2.3642    0.2151    0.0000 C   0  0  0  0  0  0  0  0  0  0  0  0
    3.8344   -0.0822    0.0000 C   0  0  0  0  0  0  0  0  0  0  0  0
    4.9391    0.9325    0.0000 N   0  0  0  0  0  0  0  0  0  0  0  0
    6.2455    0.1954    0.0000 C   0  0  0  0  0  0  0  0  0  0  0  0
    7.6098    0.8190    0.0000 C   0  0  0  0  0  0  0  0  0  0  0  0
    7.7518    2.3123    0.0000 O   0  0  0  0  0  0  0  0  0  0  0  0
    8.8319   -0.0506    0.0000 O   0  0  0  0  0  0  0  0  0  0  0  0
    5.9482   -1.2749    0.0000 C   0  0  0  0  0  0  0  0  0  0  0  0
    4.4581   -1.4464    0.0000 S   0  0  0  0  0  0  0  0  0  0  0  0
   -0.5763    0.8098    0.0000 C   0  0  0  0  0  0  0  0  0  0  0  0
   -2.0465    1.1071    0.0000 C   0  0  0  0  0  0  0  0  0  0  0  0
   -3.0391   -0.0175    0.0000 C   0  0  0  0  0  0  0  0  0  0  0  0
  1  2  2  0
  2  3  1  0
  3  4  1  0
  4  5  1  0
  5  6  1  0
  5  7  2  0
  7  8  1  0
  8  9  2  0
  9 10  1  0
 10 11  2  0
 11 12  1  0
 12 13  2  0
 13 14  1  0
 14 15  2  0
 15 16  1  0
 16 17  1  1
 17 18  2  0
 17 19  1  0
 16 20  1  0
 20 21  1  0
 11 22  1  0
 22 23  2  0
 23 24  1  0
 24  4  2  0
 24  9  1  0
 21 14  1  0
M  END
>  <compound_id>  (143) 
PN03

>  <name>  (143) 
5'-Allyl-NapVLuc

>  <structural_class>  (143) 
pi-Extended luciferins in which the benzothiazole is absent

>  <subfamily>  (143) 
naphthalene

>  <smiles>  (143) 
C=CCc1c(O)ccc2cc(/C=C/C3=N[C@@H](C(=O)O)CS3)ccc12

>  <inchi>  (143) 
InChI=1S/C19H17NO3S/c1-2-3-15-14-7-4-12(10-13(14)6-8-17(15)21)5-9-18-20-16(11-24-18)19(22)23/h2,4-10,16,21H,1,3,11H2,(H,22,23)/b9-5+/t16-/m1/s1

>  <inchikey>  (143) 
MSPPKYQRSCTXBR-DXWDOBMASA-N

>  <molecular_formula>  (143) 
C19H17NO3S

>  <iupac_name>  (143) 
(4S)-2--4,5-dihydro-1,3-thiazole-4-carboxylic acid

$$$$
PN04
     RDKit          2D

 25 27  0  0  0  0  0  0  0  0999 V2000
   10.1445    0.1425    0.0000 O   0  0  0  0  0  0  0  0  0  0  0  0
    8.9656   -0.7850    0.0000 C   0  0  0  0  0  0  0  0  0  0  0  0
    9.1794   -2.2697    0.0000 O   0  0  0  0  0  0  0  0  0  0  0  0
    7.5730   -0.2278    0.0000 C   0  0  0  0  0  0  0  0  0  0  0  0
    7.2052    1.2264    0.0000 C   0  0  0  0  0  0  0  0  0  0  0  0
    5.7085    1.3260    0.0000 S   0  0  0  0  0  0  0  0  0  0  0  0
    5.1513   -0.0667    0.0000 C   0  0  0  0  0  0  0  0  0  0  0  0
    3.6971   -0.4345    0.0000 C   0  0  0  0  0  0  0  0  0  0  0  0
    2.6514    0.6410    0.0000 C   0  0  0  0  0  0  0  0  0  0  0  0
    1.1972    0.2732    0.0000 C   0  0  0  0  0  0  0  0  0  0  0  0
    0.1516    1.3486    0.0000 C   0  0  0  0  0  0  0  0  0  0  0  0
   -1.3026    0.9808    0.0000 C   0  0  0  0  0  0  0  0  0  0  0  0
   -2.3483    2.0563    0.0000 C   0  0  0  0  0  0  0  0  0  0  0  0
   -3.8025    1.6885    0.0000 C   0  0  0  0  0  0  0  0  0  0  0  0
   -4.2110    0.2452    0.0000 C   0  0  0  0  0  0  0  0  0  0  0  0
   -5.6652   -0.1226    0.0000 N   0  0  0  0  0  0  0  0  0  0  0  0
   -5.9648   -1.5924    0.0000 C   0  0  0  0  0  0  0  0  0  0  0  0
   -7.3007   -2.2745    0.0000 C   0  0  0  0  0  0  0  0  0  0  0  0
   -8.6670   -1.6554    0.0000 C   0  0  0  0  0  0  0  0  0  0  0  0
   -9.0348   -0.2012    0.0000 C   0  0  0  0  0  0  0  0  0  0  0  0
   -8.1272    0.9930    0.0000 C   0  0  0  0  0  0  0  0  0  0  0  0
   -6.6276    1.0280    0.0000 C   0  0  0  0  0  0  0  0  0  0  0  0
   -3.1654   -0.8303    0.0000 C   0  0  0  0  0  0  0  0  0  0  0  0
   -1.7112   -0.4624    0.0000 C   0  0  0  0  0  0  0  0  0  0  0  0
    6.3036   -1.0270    0.0000 N   0  0  0  0  0  0  0  0  0  0  0  0
  1  2  2  0
  2  3  1  0
  4  2  1  6
  4  5  1  0
  5  6  1  0
  6  7  1  0
  7  8  1  0
  8  9  2  0
  9 10  1  0
 10 11  2  0
 11 12  1  0
 12 13  1  0
 13 14  2  0
 14 15  1  0
 15 16  1  0
 16 17  1  0
 17 18  1  0
 18 19  1  0
 19 20  1  0
 20 21  1  0
 21 22  1  0
 15 23  2  0
 23 24  1  0
  7 25  2  0
 25  4  1  0
 24 12  2  0
 22 16  1  0
M  END
>  <compound_id>  (144) 
PN04

>  <name>  (144) 
AkaLumine 1-azepanyl analogue

>  <structural_class>  (144) 
pi-Extended luciferins in which the benzothiazole is absent

>  <subfamily>  (144) 
benzene

>  <smiles>  (144) 
O=C(O)[C@H]1CSC(/C=C/C=C/c2ccc(N3CCCCCC3)cc2)=N1

>  <inchi>  (144) 
InChI=1S/C20H24N2O2S/c23-20(24)18-15-25-19(21-18)8-4-3-7-16-9-11-17(12-10-16)22-13-5-1-2-6-14-22/h3-4,7-12,18H,1-2,5-6,13-15H2,(H,23,24)/b7-3+,8-4+/t18-/m1/s1

>  <inchikey>  (144) 
AACSTIHPUKSDPA-DEQYVCSRSA-N

>  <molecular_formula>  (144) 
C20H24N2O2S

>  <iupac_name>  (144) 
(4S)-2-[(1E,3E)-4-buta-1,3-dien-1-yl]-4,5-dihydro-1,3-thiazole-4-carboxylic acid

$$$$
PN05
     RDKit          2D

 24 26  0  0  0  0  0  0  0  0999 V2000
   -9.7819   -0.1937    0.0000 O   0  0  0  0  0  0  0  0  0  0  0  0
   -8.6114    0.7443    0.0000 C   0  0  0  0  0  0  0  0  0  0  0  0
   -8.8385    2.2271    0.0000 O   0  0  0  0  0  0  0  0  0  0  0  0
   -7.2138    0.1997    0.0000 C   0  0  0  0  0  0  0  0  0  0  0  0
   -6.8329   -1.2511    0.0000 C   0  0  0  0  0  0  0  0  0  0  0  0
   -5.3354   -1.3372    0.0000 S   0  0  0  0  0  0  0  0  0  0  0  0
   -4.7907    0.0604    0.0000 C   0  0  0  0  0  0  0  0  0  0  0  0
   -3.3399    0.4413    0.0000 C   0  0  0  0  0  0  0  0  0  0  0  0
   -2.2846   -0.6248    0.0000 C   0  0  0  0  0  0  0  0  0  0  0  0
   -0.8338   -0.2439    0.0000 C   0  0  0  0  0  0  0  0  0  0  0  0
    0.2215   -1.3099    0.0000 C   0  0  0  0  0  0  0  0  0  0  0  0
    1.6723   -0.9290    0.0000 C   0  0  0  0  0  0  0  0  0  0  0  0
    2.7276   -1.9951    0.0000 C   0  0  0  0  0  0  0  0  0  0  0  0
    4.1784   -1.6142    0.0000 C   0  0  0  0  0  0  0  0  0  0  0  0
    4.5740   -0.1673    0.0000 C   0  0  0  0  0  0  0  0  0  0  0  0
    6.0248    0.2136    0.0000 N   0  0  0  0  0  0  0  0  0  0  0  0
    7.0801   -0.8525    0.0000 C   0  0  0  0  0  0  0  0  0  0  0  0
    8.5309   -0.4716    0.0000 C   0  0  0  0  0  0  0  0  0  0  0  0
    8.9265    0.9753    0.0000 C   0  0  0  0  0  0  0  0  0  0  0  0
    7.8713    2.0413    0.0000 C   0  0  0  0  0  0  0  0  0  0  0  0
    6.4204    1.6605    0.0000 C   0  0  0  0  0  0  0  0  0  0  0  0
    3.5187    0.8987    0.0000 C   0  0  0  0  0  0  0  0  0  0  0  0
    2.0679    0.5179    0.0000 C   0  0  0  0  0  0  0  0  0  0  0  0
   -5.9516    1.0103    0.0000 N   0  0  0  0  0  0  0  0  0  0  0  0
  1  2  2  0
  2  3  1  0
  4  2  1  6
  4  5  1  0
  5  6  1  0
  6  7  1  0
  7  8  1  0
  8  9  2  0
  9 10  1  0
 10 11  2  0
 11 12  1  0
 12 13  1  0
 13 14  2  0
 14 15  1  0
 15 16  1  0
 16 17  1  0
 17 18  1  0
 18 19  1  0
 19 20  1  0
 20 21  1  0
 15 22  2  0
 22 23  1  0
  7 24  2  0
 24  4  1  0
 23 12  2  0
 21 16  1  0
M  END
>  <compound_id>  (145) 
PN05

>  <name>  (145) 
AkaLumine 1-piperidino analogue

>  <structural_class>  (145) 
pi-Extended luciferins in which the benzothiazole is absent

>  <subfamily>  (145) 
benzene

>  <smiles>  (145) 
O=C(O)[C@H]1CSC(/C=C/C=C/c2ccc(N3CCCCC3)cc2)=N1

>  <inchi>  (145) 
InChI=1S/C19H22N2O2S/c22-19(23)17-14-24-18(20-17)7-3-2-6-15-8-10-16(11-9-15)21-12-4-1-5-13-21/h2-3,6-11,17H,1,4-5,12-14H2,(H,22,23)/b6-2+,7-3+/t17-/m1/s1

>  <inchikey>  (145) 
YJFVVAQVEOVDQA-CBRMLLROSA-N

>  <molecular_formula>  (145) 
C19H22N2O2S

>  <iupac_name>  (145) 
(4S)-2-[(1E,3E)-4-buta-1,3-dien-1-yl]-4,5-dihydro-1,3-thiazole-4-carboxylic acid

$$$$
PN06
     RDKit          2D

 23 25  0  0  0  0  0  0  0  0999 V2000
   -9.4078   -0.2488    0.0000 O   0  0  0  0  0  0  0  0  0  0  0  0
   -8.2466    0.7008    0.0000 C   0  0  0  0  0  0  0  0  0  0  0  0
   -8.4885    2.1812    0.0000 O   0  0  0  0  0  0  0  0  0  0  0  0
   -6.8437    0.1700    0.0000 C   0  0  0  0  0  0  0  0  0  0  0  0
   -6.4484   -1.2770    0.0000 C   0  0  0  0  0  0  0  0  0  0  0  0
   -4.9501   -1.3482    0.0000 S   0  0  0  0  0  0  0  0  0  0  0  0
   -4.4194    0.0548    0.0000 C   0  0  0  0  0  0  0  0  0  0  0  0
   -2.9724    0.4500    0.0000 C   0  0  0  0  0  0  0  0  0  0  0  0
   -1.9066   -0.6055    0.0000 C   0  0  0  0  0  0  0  0  0  0  0  0
   -0.4596   -0.2103    0.0000 C   0  0  0  0  0  0  0  0  0  0  0  0
    0.6062   -1.2658    0.0000 C   0  0  0  0  0  0  0  0  0  0  0  0
    2.0532   -0.8705    0.0000 C   0  0  0  0  0  0  0  0  0  0  0  0
    3.1190   -1.9260    0.0000 C   0  0  0  0  0  0  0  0  0  0  0  0
    4.5660   -1.5308    0.0000 C   0  0  0  0  0  0  0  0  0  0  0  0
    4.9472   -0.0800    0.0000 C   0  0  0  0  0  0  0  0  0  0  0  0
    6.3942    0.3152    0.0000 N   0  0  0  0  0  0  0  0  0  0  0  0
    6.9249    1.7182    0.0000 C   0  0  0  0  0  0  0  0  0  0  0  0
    8.4232    1.6469    0.0000 C   0  0  0  0  0  0  0  0  0  0  0  0
    8.8185    0.2000    0.0000 C   0  0  0  0  0  0  0  0  0  0  0  0
    7.5644   -0.6231    0.0000 C   0  0  0  0  0  0  0  0  0  0  0  0
    3.8814    0.9755    0.0000 C   0  0  0  0  0  0  0  0  0  0  0  0
    2.4344    0.5802    0.0000 C   0  0  0  0  0  0  0  0  0  0  0  0
   -5.5896    0.9931    0.0000 N   0  0  0  0  0  0  0  0  0  0  0  0
  1  2  2  0
  2  3  1  0
  4  2  1  6
  4  5  1  0
  5  6  1  0
  6  7  1  0
  7  8  1  0
  8  9  2  0
  9 10  1  0
 10 11  2  0
 11 12  1  0
 12 13  1  0
 13 14  2  0
 14 15  1  0
 15 16  1  0
 16 17  1  0
 17 18  1  0
 18 19  1  0
 19 20  1  0
 15 21  2  0
 21 22  1  0
  7 23  2  0
 23  4  1  0
 22 12  2  0
 20 16  1  0
M  END
>  <compound_id>  (146) 
PN06

>  <name>  (146) 
AkaLumine 1-pyrrolidinyl analogue

>  <structural_class>  (146) 
pi-Extended luciferins in which the benzothiazole is absent

>  <subfamily>  (146) 
benzene

>  <smiles>  (146) 
O=C(O)[C@H]1CSC(/C=C/C=C/c2ccc(N3CCCC3)cc2)=N1

>  <inchi>  (146) 
InChI=1S/C18H20N2O2S/c21-18(22)16-13-23-17(19-16)6-2-1-5-14-7-9-15(10-8-14)20-11-3-4-12-20/h1-2,5-10,16H,3-4,11-13H2,(H,21,22)/b5-1+,6-2+/t16-/m1/s1

>  <inchikey>  (146) 
PNDHIPUDFKLGCG-NEPWSWRYSA-N

>  <molecular_formula>  (146) 
C18H20N2O2S

>  <iupac_name>  (146) 
(4S)-2-[(1E,3E)-4-buta-1,3-dien-1-yl]-4,5-dihydro-1,3-thiazole-4-carboxylic acid

$$$$
PN07
     RDKit          2D

 24 26  0  0  0  0  0  0  0  0999 V2000
   -9.7819   -0.1937    0.0000 O   0  0  0  0  0  0  0  0  0  0  0  0
   -8.6114    0.7443    0.0000 C   0  0  0  0  0  0  0  0  0  0  0  0
   -8.8385    2.2271    0.0000 O   0  0  0  0  0  0  0  0  0  0  0  0
   -7.2138    0.1997    0.0000 C   0  0  0  0  0  0  0  0  0  0  0  0
   -6.8329   -1.2511    0.0000 C   0  0  0  0  0  0  0  0  0  0  0  0
   -5.3354   -1.3372    0.0000 S   0  0  0  0  0  0  0  0  0  0  0  0
   -4.7907    0.0604    0.0000 C   0  0  0  0  0  0  0  0  0  0  0  0
   -3.3399    0.4413    0.0000 C   0  0  0  0  0  0  0  0  0  0  0  0
   -2.2846   -0.6248    0.0000 C   0  0  0  0  0  0  0  0  0  0  0  0
   -0.8338   -0.2439    0.0000 C   0  0  0  0  0  0  0  0  0  0  0  0
    0.2215   -1.3099    0.0000 C   0  0  0  0  0  0  0  0  0  0  0  0
    1.6723   -0.9290    0.0000 C   0  0  0  0  0  0  0  0  0  0  0  0
    2.7276   -1.9951    0.0000 C   0  0  0  0  0  0  0  0  0  0  0  0
    4.1784   -1.6142    0.0000 C   0  0  0  0  0  0  0  0  0  0  0  0
    4.5740   -0.1673    0.0000 C   0  0  0  0  0  0  0  0  0  0  0  0
    6.0248    0.2136    0.0000 N   0  0  0  0  0  0  0  0  0  0  0  0
    7.0801   -0.8525    0.0000 C   0  0  0  0  0  0  0  0  0  0  0  0
    8.5309   -0.4716    0.0000 C   0  0  0  0  0  0  0  0  0  0  0  0
    8.9265    0.9753    0.0000 O   0  0  0  0  0  0  0  0  0  0  0  0
    7.8713    2.0413    0.0000 C   0  0  0  0  0  0  0  0  0  0  0  0
    6.4204    1.6605    0.0000 C   0  0  0  0  0  0  0  0  0  0  0  0
    3.5187    0.8987    0.0000 C   0  0  0  0  0  0  0  0  0  0  0  0
    2.0679    0.5179    0.0000 C   0  0  0  0  0  0  0  0  0  0  0  0
   -5.9516    1.0103    0.0000 N   0  0  0  0  0  0  0  0  0  0  0  0
  1  2  2  0
  2  3  1  0
  4  2  1  6
  4  5  1  0
  5  6  1  0
  6  7  1  0
  7  8  1  0
  8  9  2  0
  9 10  1  0
 10 11  2  0
 11 12  1  0
 12 13  1  0
 13 14  2  0
 14 15  1  0
 15 16  1  0
 16 17  1  0
 17 18  1  0
 18 19  1  0
 19 20  1  0
 20 21  1  0
 15 22  2  0
 22 23  1  0
  7 24  2  0
 24  4  1  0
 23 12  2  0
 21 16  1  0
M  END
>  <compound_id>  (147) 
PN07

>  <name>  (147) 
AkaLumine 4-morpholino analogue

>  <structural_class>  (147) 
pi-Extended luciferins in which the benzothiazole is absent

>  <subfamily>  (147) 
benzene

>  <smiles>  (147) 
O=C(O)[C@H]1CSC(/C=C/C=C/c2ccc(N3CCOCC3)cc2)=N1

>  <inchi>  (147) 
InChI=1S/C18H20N2O3S/c21-18(22)16-13-24-17(19-16)4-2-1-3-14-5-7-15(8-6-14)20-9-11-23-12-10-20/h1-8,16H,9-13H2,(H,21,22)/b3-1+,4-2+/t16-/m1/s1

>  <inchikey>  (147) 
VLKQAIKCGQSTSZ-JZTDRMOPSA-N

>  <molecular_formula>  (147) 
C18H20N2O3S

>  <iupac_name>  (147) 
(4S)-2--4,5-dihydro-1,3-thiazole-4-carboxylic acid

$$$$
PN08
     RDKit          2D

 21 22  0  0  0  0  0  0  0  0999 V2000
   -8.0840    1.0268    0.0000 C   0  0  0  0  0  0  0  0  0  0  0  0
   -7.1427   -0.1411    0.0000 N   0  0  0  0  0  0  0  0  0  0  0  0
   -7.6834   -1.5402    0.0000 C   0  0  0  0  0  0  0  0  0  0  0  0
   -5.6606    0.0903    0.0000 C   0  0  0  0  0  0  0  0  0  0  0  0
   -5.1199    1.4894    0.0000 C   0  0  0  0  0  0  0  0  0  0  0  0
   -3.6379    1.7207    0.0000 C   0  0  0  0  0  0  0  0  0  0  0  0
   -2.6965    0.5529    0.0000 C   0  0  0  0  0  0  0  0  0  0  0  0
   -1.2144    0.7842    0.0000 C   0  0  0  0  0  0  0  0  0  0  0  0
   -0.2731   -0.3836    0.0000 C   0  0  0  0  0  0  0  0  0  0  0  0
    1.2090   -0.1523    0.0000 C   0  0  0  0  0  0  0  0  0  0  0  0
    2.1503   -1.3202    0.0000 C   0  0  0  0  0  0  0  0  0  0  0  0
    3.6324   -1.0889    0.0000 C   0  0  0  0  0  0  0  0  0  0  0  0
    4.3164    0.2461    0.0000 N   0  0  0  0  0  0  0  0  0  0  0  0
    5.7974    0.0081    0.0000 C   0  0  0  0  0  0  0  0  0  0  0  0
    6.8604    1.0664    0.0000 C   0  0  0  0  0  0  0  0  0  0  0  0
    6.4754    2.5162    0.0000 O   0  0  0  0  0  0  0  0  0  0  0  0
    8.3084    0.6749    0.0000 O   0  0  0  0  0  0  0  0  0  0  0  0
    6.0287   -1.4739    0.0000 C   0  0  0  0  0  0  0  0  0  0  0  0
    4.6906   -2.1519    0.0000 S   0  0  0  0  0  0  0  0  0  0  0  0
   -3.2372   -0.8463    0.0000 C   0  0  0  0  0  0  0  0  0  0  0  0
   -4.7193   -1.0776    0.0000 C   0  0  0  0  0  0  0  0  0  0  0  0
  1  2  1  0
  2  3  1  0
  2  4  1  0
  4  5  1  0
  5  6  2  0
  6  7  1  0
  7  8  1  0
  8  9  2  0
  9 10  1  0
 10 11  2  0
 11 12  1  0
 12 13  2  0
 13 14  1  0
 14 15  1  1
 15 16  2  0
 15 17  1  0
 14 18  1  0
 18 19  1  0
  7 20  2  0
 20 21  1  0
 21  4  2  0
 19 12  1  0
M  END
>  <compound_id>  (148) 
PN08

>  <name>  (148) 
AkaLumine hydrochloride

>  <structural_class>  (148) 
pi-Extended luciferins in which the benzothiazole is absent

>  <subfamily>  (148) 
benzene

>  <smiles>  (148) 
CN(C)c1ccc(/C=C/C=C/C2=N[C@@H](C(=O)O)CS2)cc1

>  <inchi>  (148) 
InChI=1S/C16H18N2O2S/c1-18(2)13-9-7-12(8-10-13)5-3-4-6-15-17-14(11-21-15)16(19)20/h3-10,14H,11H2,1-2H3,(H,19,20)/b5-3+,6-4+/t14-/m1/s1

>  <inchikey>  (148) 
ULTVSKXCSMDCHR-SBRPLTKKSA-N

>  <molecular_formula>  (148) 
C16H18N2O2S

>  <iupac_name>  (148) 
(4S)-2-[(1E,3E)-4-buta-1,3-dien-1-yl]-4,5-dihydro-1,3-thiazole-4-carboxylic acid

$$$$
PN09
     RDKit          2D

 20 22  0  0  0  0  0  0  0  0999 V2000
   -7.7429   -0.1902    0.0000 O   0  0  0  0  0  0  0  0  0  0  0  0
   -6.5321    0.6952    0.0000 C   0  0  0  0  0  0  0  0  0  0  0  0
   -6.6934    2.1865    0.0000 O   0  0  0  0  0  0  0  0  0  0  0  0
   -5.1599    0.0893    0.0000 C   0  0  0  0  0  0  0  0  0  0  0  0
   -4.8435   -1.3769    0.0000 C   0  0  0  0  0  0  0  0  0  0  0  0
   -3.3512   -1.5291    0.0000 S   0  0  0  0  0  0  0  0  0  0  0  0
   -2.7454   -0.1569    0.0000 C   0  0  0  0  0  0  0  0  0  0  0  0
   -1.2791    0.1594    0.0000 C   0  0  0  0  0  0  0  0  0  0  0  0
   -0.2720   -0.9522    0.0000 C   0  0  0  0  0  0  0  0  0  0  0  0
    1.1943   -0.6358    0.0000 C   0  0  0  0  0  0  0  0  0  0  0  0
    2.2014   -1.7474    0.0000 C   0  0  0  0  0  0  0  0  0  0  0  0
    3.6677   -1.4311    0.0000 C   0  0  0  0  0  0  0  0  0  0  0  0
    4.1268   -0.0030    0.0000 C   0  0  0  0  0  0  0  0  0  0  0  0
    5.5930    0.3133    0.0000 N   0  0  0  0  0  0  0  0  0  0  0  0
    6.8536   -0.4998    0.0000 C   0  0  0  0  0  0  0  0  0  0  0  0
    7.6666    0.7608    0.0000 C   0  0  0  0  0  0  0  0  0  0  0  0
    6.4061    1.5738    0.0000 C   0  0  0  0  0  0  0  0  0  0  0  0
    3.1197    1.1086    0.0000 C   0  0  0  0  0  0  0  0  0  0  0  0
    1.6534    0.7922    0.0000 C   0  0  0  0  0  0  0  0  0  0  0  0
   -3.8632    0.8433    0.0000 N   0  0  0  0  0  0  0  0  0  0  0  0
  1  2  2  0
  2  3  1  0
  4  2  1  6
  4  5  1  0
  5  6  1  0
  6  7  1  0
  7  8  1  0
  8  9  2  0
  9 10  1  0
 10 11  1  0
 11 12  2  0
 12 13  1  0
 13 14  1  0
 14 15  1  0
 15 16  1  0
 16 17  1  0
 13 18  2  0
 18 19  1  0
  7 20  2  0
 20  4  1  0
 19 10  2  0
 17 14  1  0
M  END
>  <compound_id>  (149) 
PN09

>  <name>  (149) 
azetidinyl styryl luciferin

>  <structural_class>  (149) 
pi-Extended luciferins in which the benzothiazole is absent

>  <subfamily>  (149) 
benzene

>  <smiles>  (149) 
O=C(O)[C@H]1CSC(/C=C/c2ccc(N3CCC3)cc2)=N1

>  <inchi>  (149) 
InChI=1S/C15H16N2O2S/c18-15(19)13-10-20-14(16-13)7-4-11-2-5-12(6-3-11)17-8-1-9-17/h2-7,13H,1,8-10H2,(H,18,19)/b7-4+/t13-/m1/s1

>  <inchikey>  (149) 
ZNXJLUXUQADEFO-WXJAXGNASA-N

>  <molecular_formula>  (149) 
C15H16N2O2S

>  <iupac_name>  (149) 
(4S)-2-[(E)-2-ethenyl]-4,5-dihydro-1,3-thiazole-4-carboxylic acid

$$$$
PN10
     RDKit          2D

 20 22  0  0  0  0  0  0  0  0999 V2000
   -7.6502   -0.1304    0.0000 O   0  0  0  0  0  0  0  0  0  0  0  0
   -6.4261    0.7366    0.0000 C   0  0  0  0  0  0  0  0  0  0  0  0
   -6.5649    2.2301    0.0000 O   0  0  0  0  0  0  0  0  0  0  0  0
   -5.0633    0.1100    0.0000 C   0  0  0  0  0  0  0  0  0  0  0  0
   -4.7692   -1.3609    0.0000 C   0  0  0  0  0  0  0  0  0  0  0  0
   -3.2794   -1.5357    0.0000 S   0  0  0  0  0  0  0  0  0  0  0  0
   -2.6528   -0.1729    0.0000 C   0  0  0  0  0  0  0  0  0  0  0  0
   -1.1819    0.1212    0.0000 C   0  0  0  0  0  0  0  0  0  0  0  0
   -0.1917   -1.0055    0.0000 C   0  0  0  0  0  0  0  0  0  0  0  0
    1.2791   -0.7114    0.0000 C   0  0  0  0  0  0  0  0  0  0  0  0
    2.3816   -1.7285    0.0000 N   0  0  0  0  0  0  0  0  0  0  0  0
    3.6896   -0.9942    0.0000 C   0  0  0  0  0  0  0  0  0  0  0  0
    5.1105   -1.4750    0.0000 C   0  0  0  0  0  0  0  0  0  0  0  0
    6.2373   -0.4848    0.0000 C   0  0  0  0  0  0  0  0  0  0  0  0
    5.9432    0.9861    0.0000 C   0  0  0  0  0  0  0  0  0  0  0  0
    7.0699    1.9762    0.0000 O   0  0  0  0  0  0  0  0  0  0  0  0
    4.5223    1.4668    0.0000 C   0  0  0  0  0  0  0  0  0  0  0  0
    3.3955    0.4766    0.0000 C   0  0  0  0  0  0  0  0  0  0  0  0
    1.9057    0.6514    0.0000 N   0  0  0  0  0  0  0  0  0  0  0  0
   -3.7553    0.8442    0.0000 N   0  0  0  0  0  0  0  0  0  0  0  0
  1  2  2  0
  2  3  1  0
  2  4  1  0
  4  5  1  0
  5  6  1  0
  6  7  1  0
  7  8  1  0
  8  9  2  0
  9 10  1  0
 10 11  2  0
 11 12  1  0
 12 13  1  0
 13 14  2  0
 14 15  1  0
 15 16  1  0
 15 17  2  0
 17 18  1  0
 18 19  1  0
  7 20  2  0
 20  4  1  0
 19 10  1  0
 18 12  2  0
M  END
>  <compound_id>  (150) 
PN10

>  <name>  (150) 
Benzimidazole infraluciferin (BIiLH2)

>  <structural_class>  (150) 
pi-Extended luciferins in which the benzothiazole is absent

>  <subfamily>  (150) 
benzimidazole

>  <smiles>  (150) 
O=C(O)C1CSC(/C=C/c2nc3ccc(O)cc3[nH]2)=N1

>  <inchi>  (150) 
InChI=1S/C13H11N3O3S/c17-7-1-2-8-9(5-7)15-11(14-8)3-4-12-16-10(6-20-12)13(18)19/h1-5,10,17H,6H2,(H,14,15)(H,18,19)/b4-3+

>  <inchikey>  (150) 
GJPGGBYVNOCWNM-ONEGZZNKSA-N

>  <molecular_formula>  (150) 
C13H11N3O3S

>  <iupac_name>  (150) 
(E)-2-(2-(6-hydroxy-1H-benzimidazol-2-yl)vinyl)-4,5-dihydro-1,3-thiazole-4-carboxylic acid (racemic)

>  <stereochemistry>  (150) 
racemate

$$$$
PN11
     RDKit          2D

 23 25  0  0  0  0  0  0  0  0999 V2000
    7.7631   -1.6431    0.0000 C   0  0  0  0  0  0  0  0  0  0  0  0
    7.1141   -0.2908    0.0000 N   0  0  0  0  0  0  0  0  0  0  0  0
    7.9607    0.9475    0.0000 C   0  0  0  0  0  0  0  0  0  0  0  0
    5.6184   -0.1767    0.0000 C   0  0  0  0  0  0  0  0  0  0  0  0
    4.7718   -1.4149    0.0000 C   0  0  0  0  0  0  0  0  0  0  0  0
    3.2762   -1.3008    0.0000 C   0  0  0  0  0  0  0  0  0  0  0  0
    2.6271    0.0515    0.0000 C   0  0  0  0  0  0  0  0  0  0  0  0
    1.1315    0.1656    0.0000 C   0  0  0  0  0  0  0  0  0  0  0  0
    0.4824    1.5179    0.0000 C   0  0  0  0  0  0  0  0  0  0  0  0
   -1.0132    1.6320    0.0000 C   0  0  0  0  0  0  0  0  0  0  0  0
   -1.8598    0.3938    0.0000 C   0  0  0  0  0  0  0  0  0  0  0  0
   -3.3555    0.5078    0.0000 C   0  0  0  0  0  0  0  0  0  0  0  0
   -4.3269   -0.6351    0.0000 N   0  0  0  0  0  0  0  0  0  0  0  0
   -5.7141   -0.0644    0.0000 C   0  0  0  0  0  0  0  0  0  0  0  0
   -6.9912   -0.8513    0.0000 C   0  0  0  0  0  0  0  0  0  0  0  0
   -6.9483   -2.3506    0.0000 O   0  0  0  0  0  0  0  0  0  0  0  0
   -8.3111   -0.1387    0.0000 O   0  0  0  0  0  0  0  0  0  0  0  0
   -5.6000    1.4312    0.0000 C   0  0  0  0  0  0  0  0  0  0  0  0
   -4.1423    1.7849    0.0000 S   0  0  0  0  0  0  0  0  0  0  0  0
   -1.2108   -0.9586    0.0000 C   0  0  0  0  0  0  0  0  0  0  0  0
    0.2848   -1.0726    0.0000 C   0  0  0  0  0  0  0  0  0  0  0  0
    3.4738    1.2897    0.0000 C   0  0  0  0  0  0  0  0  0  0  0  0
    4.9694    1.1756    0.0000 C   0  0  0  0  0  0  0  0  0  0  0  0
  1  2  1  0
  2  3  1  0
  2  4  1  0
  4  5  1  0
  5  6  2  0
  6  7  1  0
  7  8  1  0
  8  9  1  0
  9 10  2  0
 10 11  1  0
 11 12  1  0
 12 13  2  0
 13 14  1  0
 14 15  1  1
 15 16  2  0
 15 17  1  0
 14 18  1  0
 18 19  1  0
 11 20  2  0
 20 21  1  0
  7 22  2  0
 22 23  1  0
 23  4  2  0
 21  8  2  0
 19 12  1  0
M  END
>  <compound_id>  (151) 
PN11

>  <name>  (151) 
Biphenyl-type luciferin analogue 1a (Miura 2013)

>  <structural_class>  (151) 
pi-Extended luciferins in which the benzothiazole is absent

>  <subfamily>  (151) 
benzene

>  <smiles>  (151) 
CN(C)c1ccc(-c2ccc(C3=N[C@@H](C(=O)O)CS3)cc2)cc1

>  <inchi>  (151) 
InChI=1S/C18H18N2O2S/c1-20(2)15-9-7-13(8-10-15)12-3-5-14(6-4-12)17-19-16(11-23-17)18(21)22/h3-10,16H,11H2,1-2H3,(H,21,22)/t16-/m1/s1

>  <inchikey>  (151) 
PDXGSBATMIYLRS-MRXNPFEDSA-N

>  <molecular_formula>  (151) 
C18H18N2O2S

>  <iupac_name>  (151) 
(S)-2-(4'-(Dimethylamino)--4-yl)-4,5-dihydrothiazole-4-carboxylic acid

$$$$
PN12
     RDKit          2D

 21 23  0  0  0  0  0  0  0  0999 V2000
   -7.5640    0.0651    0.0000 O   0  0  0  0  0  0  0  0  0  0  0  0
   -6.2543    0.7962    0.0000 C   0  0  0  0  0  0  0  0  0  0  0  0
   -6.2326    2.2961    0.0000 O   0  0  0  0  0  0  0  0  0  0  0  0
   -4.9662    0.0275    0.0000 C   0  0  0  0  0  0  0  0  0  0  0  0
   -4.8311   -1.4664    0.0000 C   0  0  0  0  0  0  0  0  0  0  0  0
   -3.3685   -1.7995    0.0000 S   0  0  0  0  0  0  0  0  0  0  0  0
   -2.5998   -0.5114    0.0000 C   0  0  0  0  0  0  0  0  0  0  0  0
   -1.1059   -0.3763    0.0000 C   0  0  0  0  0  0  0  0  0  0  0  0
   -0.2419   -1.6024    0.0000 C   0  0  0  0  0  0  0  0  0  0  0  0
    1.2520   -1.4673    0.0000 C   0  0  0  0  0  0  0  0  0  0  0  0
    1.8819   -0.1059    0.0000 C   0  0  0  0  0  0  0  0  0  0  0  0
    3.3758    0.0293    0.0000 C   0  0  0  0  0  0  0  0  0  0  0  0
    4.2398   -1.1969    0.0000 C   0  0  0  0  0  0  0  0  0  0  0  0
    5.7337   -1.0617    0.0000 C   0  0  0  0  0  0  0  0  0  0  0  0
    6.3636    0.2996    0.0000 C   0  0  0  0  0  0  0  0  0  0  0  0
    7.8575    0.4348    0.0000 O   0  0  0  0  0  0  0  0  0  0  0  0
    5.4996    1.5258    0.0000 C   0  0  0  0  0  0  0  0  0  0  0  0
    4.0057    1.3906    0.0000 C   0  0  0  0  0  0  0  0  0  0  0  0
    1.0179    1.1202    0.0000 C   0  0  0  0  0  0  0  0  0  0  0  0
   -0.4760    0.9851    0.0000 C   0  0  0  0  0  0  0  0  0  0  0  0
   -3.5872    0.6177    0.0000 N   0  0  0  0  0  0  0  0  0  0  0  0
  1  2  2  0
  2  3  1  0
  4  2  1  6
  4  5  1  0
  5  6  1  0
  6  7  1  0
  7  8  1  0
  8  9  1  0
  9 10  2  0
 10 11  1  0
 11 12  1  0
 12 13  1  0
 13 14  2  0
 14 15  1  0
 15 16  1  0
 15 17  2  0
 17 18  1  0
 11 19  2  0
 19 20  1  0
  7 21  2  0
 21  4  1  0
 20  8  2  0
 18 12  2  0
M  END
>  <compound_id>  (152) 
PN12

>  <name>  (152) 
Biphenyl-type luciferin analogue 1b (Miura 2013)

>  <structural_class>  (152) 
pi-Extended luciferins in which the benzothiazole is absent

>  <subfamily>  (152) 
benzene

>  <smiles>  (152) 
O=C(O)[C@H]1CSC(c2ccc(-c3ccc(O)cc3)cc2)=N1

>  <inchi>  (152) 
InChI=1S/C16H13NO3S/c18-13-7-5-11(6-8-13)10-1-3-12(4-2-10)15-17-14(9-21-15)16(19)20/h1-8,14,18H,9H2,(H,19,20)/t14-/m1/s1

>  <inchikey>  (152) 
OXZAGOWHGZSHHP-CQSZACIVSA-N

>  <molecular_formula>  (152) 
C16H13NO3S

>  <iupac_name>  (152) 
(S)-2-(4'-Hydroxy--4-yl)-4,5-dihydrothiazole-4-carboxylic acid

$$$$
PN13
     RDKit          2D

 21 23  0  0  0  0  0  0  0  0999 V2000
    7.8575   -0.4348    0.0000 N   0  0  0  0  0  0  0  0  0  0  0  0
    6.3636   -0.2996    0.0000 C   0  0  0  0  0  0  0  0  0  0  0  0
    5.4996   -1.5258    0.0000 C   0  0  0  0  0  0  0  0  0  0  0  0
    4.0057   -1.3906    0.0000 C   0  0  0  0  0  0  0  0  0  0  0  0
    3.3758   -0.0293    0.0000 C   0  0  0  0  0  0  0  0  0  0  0  0
    1.8819    0.1059    0.0000 C   0  0  0  0  0  0  0  0  0  0  0  0
    1.2520    1.4673    0.0000 C   0  0  0  0  0  0  0  0  0  0  0  0
   -0.2419    1.6024    0.0000 C   0  0  0  0  0  0  0  0  0  0  0  0
   -1.1059    0.3763    0.0000 C   0  0  0  0  0  0  0  0  0  0  0  0
   -2.5998    0.5114    0.0000 C   0  0  0  0  0  0  0  0  0  0  0  0
   -3.5872   -0.6177    0.0000 N   0  0  0  0  0  0  0  0  0  0  0  0
   -4.9662   -0.0275    0.0000 C   0  0  0  0  0  0  0  0  0  0  0  0
   -6.2543   -0.7962    0.0000 C   0  0  0  0  0  0  0  0  0  0  0  0
   -6.2326   -2.2961    0.0000 O   0  0  0  0  0  0  0  0  0  0  0  0
   -7.5640   -0.0651    0.0000 O   0  0  0  0  0  0  0  0  0  0  0  0
   -4.8311    1.4664    0.0000 C   0  0  0  0  0  0  0  0  0  0  0  0
   -3.3685    1.7995    0.0000 S   0  0  0  0  0  0  0  0  0  0  0  0
   -0.4760   -0.9851    0.0000 C   0  0  0  0  0  0  0  0  0  0  0  0
    1.0179   -1.1202    0.0000 C   0  0  0  0  0  0  0  0  0  0  0  0
    4.2398    1.1969    0.0000 C   0  0  0  0  0  0  0  0  0  0  0  0
    5.7337    1.0617    0.0000 C   0  0  0  0  0  0  0  0  0  0  0  0
  1  2  1  0
  2  3  1  0
  3  4  2  0
  4  5  1  0
  5  6  1  0
  6  7  1  0
  7  8  2  0
  8  9  1  0
  9 10  1  0
 10 11  2  0
 11 12  1  0
 12 13  1  1
 13 14  2  0
 13 15  1  0
 12 16  1  0
 16 17  1  0
  9 18  2  0
 18 19  1  0
  5 20  2  0
 20 21  1  0
 21  2  2  0
 19  6  2  0
 17 10  1  0
M  END
>  <compound_id>  (153) 
PN13

>  <name>  (153) 
Biphenyl-type luciferin analogue 1c (Miura 2013)

>  <structural_class>  (153) 
pi-Extended luciferins in which the benzothiazole is absent

>  <subfamily>  (153) 
benzene

>  <smiles>  (153) 
Nc1ccc(-c2ccc(C3=N[C@@H](C(=O)O)CS3)cc2)cc1

>  <inchi>  (153) 
InChI=1S/C16H14N2O2S/c17-13-7-5-11(6-8-13)10-1-3-12(4-2-10)15-18-14(9-21-15)16(19)20/h1-8,14H,9,17H2,(H,19,20)/t14-/m1/s1

>  <inchikey>  (153) 
CVTUQYVAYRTNGS-CQSZACIVSA-N

>  <molecular_formula>  (153) 
C16H14N2O2S

>  <iupac_name>  (153) 
(S)-2-(4'-Amino--4-yl)-4,5-dihydrothiazole-4-carboxylic acid

$$$$
PN14
     RDKit          2D

 17 18  0  0  0  0  0  0  0  0999 V2000
   -6.4977   -0.4373    0.0000 O   0  0  0  0  0  0  0  0  0  0  0  0
   -5.3370    0.5128    0.0000 C   0  0  0  0  0  0  0  0  0  0  0  0
   -5.5795    1.9931    0.0000 O   0  0  0  0  0  0  0  0  0  0  0  0
   -3.9338   -0.0173    0.0000 C   0  0  0  0  0  0  0  0  0  0  0  0
   -3.5379   -1.4642    0.0000 C   0  0  0  0  0  0  0  0  0  0  0  0
   -2.0396   -1.5347    0.0000 S   0  0  0  0  0  0  0  0  0  0  0  0
   -1.5095   -0.1315    0.0000 C   0  0  0  0  0  0  0  0  0  0  0  0
   -0.0626    0.2643    0.0000 C   0  0  0  0  0  0  0  0  0  0  0  0
    1.0036   -0.7907    0.0000 C   0  0  0  0  0  0  0  0  0  0  0  0
    2.4504   -0.3948    0.0000 C   0  0  0  0  0  0  0  0  0  0  0  0
    3.5167   -1.4498    0.0000 C   0  0  0  0  0  0  0  0  0  0  0  0
    4.9635   -1.0540    0.0000 C   0  0  0  0  0  0  0  0  0  0  0  0
    5.3441    0.3970    0.0000 C   0  0  0  0  0  0  0  0  0  0  0  0
    6.7909    0.7929    0.0000 O   0  0  0  0  0  0  0  0  0  0  0  0
    4.2778    1.4520    0.0000 C   0  0  0  0  0  0  0  0  0  0  0  0
    2.8310    1.0561    0.0000 C   0  0  0  0  0  0  0  0  0  0  0  0
   -2.6802    0.8063    0.0000 N   0  0  0  0  0  0  0  0  0  0  0  0
  1  2  2  0
  2  3  1  0
  4  2  1  6
  4  5  1  0
  5  6  1  0
  6  7  1  0
  7  8  1  0
  8  9  2  0
  9 10  1  0
 10 11  1  0
 11 12  2  0
 12 13  1  0
 13 14  1  0
 13 15  2  0
 15 16  1  0
  7 17  2  0
 17  4  1  0
 16 10  2  0
M  END
>  <compound_id>  (154) 
PN14

>  <name>  (154) 
Iwano 2013 analogue 2a

>  <structural_class>  (154) 
pi-Extended luciferins in which the benzothiazole is absent

>  <subfamily>  (154) 
benzene

>  <smiles>  (154) 
O=C(O)[C@H]1CSC(/C=C/c2ccc(O)cc2)=N1

>  <inchi>  (154) 
InChI=1S/C12H11NO3S/c14-9-4-1-8(2-5-9)3-6-11-13-10(7-17-11)12(15)16/h1-6,10,14H,7H2,(H,15,16)/b6-3+/t10-/m1/s1

>  <inchikey>  (154) 
SOOQWQQYQUJKPO-QLCVYAKKSA-N

>  <molecular_formula>  (154) 
C12H11NO3S

>  <iupac_name>  (154) 
(S,E)-2-(4-Hydroxystyryl)-4,5-dihydrothiazole-4-carboxylic acid

$$$$
PN15
     RDKit          2D

 17 18  0  0  0  0  0  0  0  0999 V2000
   -6.3881   -0.3371    0.0000 O   0  0  0  0  0  0  0  0  0  0  0  0
   -5.1947    0.5717    0.0000 C   0  0  0  0  0  0  0  0  0  0  0  0
   -5.3850    2.0595    0.0000 O   0  0  0  0  0  0  0  0  0  0  0  0
   -3.8110   -0.0075    0.0000 C   0  0  0  0  0  0  0  0  0  0  0  0
   -3.4662   -1.4673    0.0000 C   0  0  0  0  0  0  0  0  0  0  0  0
   -1.9713   -1.5905    0.0000 S   0  0  0  0  0  0  0  0  0  0  0  0
   -1.3922   -0.2068    0.0000 C   0  0  0  0  0  0  0  0  0  0  0  0
    0.0677    0.1379    0.0000 C   0  0  0  0  0  0  0  0  0  0  0  0
    1.0962   -0.9539    0.0000 C   0  0  0  0  0  0  0  0  0  0  0  0
    2.5560   -0.6092    0.0000 C   0  0  0  0  0  0  0  0  0  0  0  0
    3.5845   -1.7010    0.0000 C   0  0  0  0  0  0  0  0  0  0  0  0
    5.0444   -1.3563    0.0000 C   0  0  0  0  0  0  0  0  0  0  0  0
    5.4757    0.0804    0.0000 C   0  0  0  0  0  0  0  0  0  0  0  0
    4.4472    1.1722    0.0000 C   0  0  0  0  0  0  0  0  0  0  0  0
    4.8785    2.6089    0.0000 O   0  0  0  0  0  0  0  0  0  0  0  0
    2.9874    0.8275    0.0000 C   0  0  0  0  0  0  0  0  0  0  0  0
   -2.5292    0.7715    0.0000 N   0  0  0  0  0  0  0  0  0  0  0  0
  1  2  2  0
  2  3  1  0
  4  2  1  6
  4  5  1  0
  5  6  1  0
  6  7  1  0
  7  8  1  0
  8  9  2  0
  9 10  1  0
 10 11  2  0
 11 12  1  0
 12 13  2  0
 13 14  1  0
 14 15  1  0
 14 16  2  0
  7 17  2  0
 17  4  1  0
 16 10  1  0
M  END
>  <compound_id>  (155) 
PN15

>  <name>  (155) 
Iwano 2013 analogue 2d

>  <structural_class>  (155) 
pi-Extended luciferins in which the benzothiazole is absent

>  <subfamily>  (155) 
benzene

>  <smiles>  (155) 
O=C(O)[C@H]1CSC(/C=C/c2cccc(O)c2)=N1

>  <inchi>  (155) 
InChI=1S/C12H11NO3S/c14-9-3-1-2-8(6-9)4-5-11-13-10(7-17-11)12(15)16/h1-6,10,14H,7H2,(H,15,16)/b5-4+/t10-/m1/s1

>  <inchikey>  (155) 
MOGSFWSGDFLKEU-ORAHPGNNSA-N

>  <molecular_formula>  (155) 
C12H11NO3S

>  <iupac_name>  (155) 
(S,E)-2-(3-Hydroxystyryl)-4,5-dihydrothiazole-4-carboxylic acid

$$$$
PN16
     RDKit          2D

 19 20  0  0  0  0  0  0  0  0999 V2000
   -7.7177   -0.5642    0.0000 O   0  0  0  0  0  0  0  0  0  0  0  0
   -6.6164    0.4543    0.0000 C   0  0  0  0  0  0  0  0  0  0  0  0
   -6.9478    1.9172    0.0000 O   0  0  0  0  0  0  0  0  0  0  0  0
   -5.1838    0.0098    0.0000 C   0  0  0  0  0  0  0  0  0  0  0  0
   -4.7013   -1.4105    0.0000 C   0  0  0  0  0  0  0  0  0  0  0  0
   -3.2014   -1.3905    0.0000 S   0  0  0  0  0  0  0  0  0  0  0  0
   -2.7570    0.0421    0.0000 C   0  0  0  0  0  0  0  0  0  0  0  0
   -1.3367    0.5246    0.0000 C   0  0  0  0  0  0  0  0  0  0  0  0
   -0.2087   -0.4642    0.0000 C   0  0  0  0  0  0  0  0  0  0  0  0
    1.2116    0.0183    0.0000 C   0  0  0  0  0  0  0  0  0  0  0  0
    2.3396   -0.9705    0.0000 C   0  0  0  0  0  0  0  0  0  0  0  0
    3.7599   -0.4880    0.0000 C   0  0  0  0  0  0  0  0  0  0  0  0
    4.8878   -1.4768    0.0000 C   0  0  0  0  0  0  0  0  0  0  0  0
    6.3081   -0.9943    0.0000 C   0  0  0  0  0  0  0  0  0  0  0  0
    6.6004    0.4769    0.0000 C   0  0  0  0  0  0  0  0  0  0  0  0
    8.0207    0.9594    0.0000 O   0  0  0  0  0  0  0  0  0  0  0  0
    5.4725    1.4657    0.0000 C   0  0  0  0  0  0  0  0  0  0  0  0
    4.0522    0.9832    0.0000 C   0  0  0  0  0  0  0  0  0  0  0  0
   -3.9821    0.9075    0.0000 N   0  0  0  0  0  0  0  0  0  0  0  0
  1  2  2  0
  2  3  1  0
  4  2  1  6
  4  5  1  0
  5  6  1  0
  6  7  1  0
  7  8  1  0
  8  9  2  0
  9 10  1  0
 10 11  2  0
 11 12  1  0
 12 13  1  0
 13 14  2  0
 14 15  1  0
 15 16  1  0
 15 17  2  0
 17 18  1  0
  7 19  2  0
 19  4  1  0
 18 12  2  0
M  END
>  <compound_id>  (156) 
PN16

>  <name>  (156) 
Iwano 2013 analogue 3a

>  <structural_class>  (156) 
pi-Extended luciferins in which the benzothiazole is absent

>  <subfamily>  (156) 
benzene

>  <smiles>  (156) 
O=C(O)[C@H]1CSC(/C=C/C=C/c2ccc(O)cc2)=N1

>  <inchi>  (156) 
InChI=1S/C14H13NO3S/c16-11-7-5-10(6-8-11)3-1-2-4-13-15-12(9-19-13)14(17)18/h1-8,12,16H,9H2,(H,17,18)/b3-1+,4-2+/t12-/m1/s1

>  <inchikey>  (156) 
GQWZIPOZISVYIU-JSHDPPCLSA-N

>  <molecular_formula>  (156) 
C14H13NO3S

>  <iupac_name>  (156) 
(S)-2-((1E,3E)-4-(4-Hydroxyphenyl)buta-1,3-dienyl)-4,5-dihydrothiazole-4-carboxylic acid

$$$$
PN17
     RDKit          2D

 23 24  0  0  0  0  0  0  0  0999 V2000
   -9.3717    0.7767    0.0000 C   0  0  0  0  0  0  0  0  0  0  0  0
   -8.3430   -0.3150    0.0000 N   0  0  0  0  0  0  0  0  0  0  0  0
   -8.7740   -1.7517    0.0000 C   0  0  0  0  0  0  0  0  0  0  0  0
   -6.8832    0.0301    0.0000 C   0  0  0  0  0  0  0  0  0  0  0  0
   -6.4521    1.4668    0.0000 C   0  0  0  0  0  0  0  0  0  0  0  0
   -4.9924    1.8119    0.0000 C   0  0  0  0  0  0  0  0  0  0  0  0
   -3.9637    0.7202    0.0000 C   0  0  0  0  0  0  0  0  0  0  0  0
   -2.5039    1.0652    0.0000 C   0  0  0  0  0  0  0  0  0  0  0  0
   -1.4752   -0.0264    0.0000 C   0  0  0  0  0  0  0  0  0  0  0  0
   -0.0154    0.3186    0.0000 C   0  0  0  0  0  0  0  0  0  0  0  0
    1.0133   -0.7730    0.0000 C   0  0  0  0  0  0  0  0  0  0  0  0
    2.4731   -0.4280    0.0000 C   0  0  0  0  0  0  0  0  0  0  0  0
    3.5018   -1.5196    0.0000 C   0  0  0  0  0  0  0  0  0  0  0  0
    4.9616   -1.1746    0.0000 C   0  0  0  0  0  0  0  0  0  0  0  0
    5.5405    0.2092    0.0000 N   0  0  0  0  0  0  0  0  0  0  0  0
    7.0354    0.0863    0.0000 C   0  0  0  0  0  0  0  0  0  0  0  0
    8.0136    1.2235    0.0000 C   0  0  0  0  0  0  0  0  0  0  0  0
    7.5178    2.6392    0.0000 O   0  0  0  0  0  0  0  0  0  0  0  0
    9.4875    0.9450    0.0000 O   0  0  0  0  0  0  0  0  0  0  0  0
    7.3805   -1.3735    0.0000 C   0  0  0  0  0  0  0  0  0  0  0  0
    6.0988   -2.1527    0.0000 S   0  0  0  0  0  0  0  0  0  0  0  0
   -4.3947   -0.7165    0.0000 C   0  0  0  0  0  0  0  0  0  0  0  0
   -5.8545   -1.0616    0.0000 C   0  0  0  0  0  0  0  0  0  0  0  0
  1  2  1  0
  2  3  1  0
  2  4  1  0
  4  5  1  0
  5  6  2  0
  6  7  1  0
  7  8  1  0
  8  9  2  0
  9 10  1  0
 10 11  2  0
 11 12  1  0
 12 13  2  0
 13 14  1  0
 14 15  2  0
 15 16  1  0
 16 17  1  1
 17 18  2  0
 17 19  1  0
 16 20  1  0
 20 21  1  0
  7 22  2  0
 22 23  1  0
 23  4  2  0
 21 14  1  0
M  END
>  <compound_id>  (157) 
PN17

>  <name>  (157) 
Kamiya 2021 analogue 1c (dimethylamino phenylhexatriene luciferin)

>  <structural_class>  (157) 
pi-Extended luciferins in which the benzothiazole is absent

>  <subfamily>  (157) 
benzene

>  <smiles>  (157) 
CN(C)c1ccc(/C=C/C=C/C=C/C2=N[C@@H](C(=O)O)CS2)cc1

>  <inchi>  (157) 
InChI=1S/C18H20N2O2S/c1-20(2)15-11-9-14(10-12-15)7-5-3-4-6-8-17-19-16(13-23-17)18(21)22/h3-12,16H,13H2,1-2H3,(H,21,22)/b4-3+,7-5+,8-6+/t16-/m1/s1

>  <inchikey>  (157) 
CAEVGLVUGSRPES-ODEFYUAYSA-N

>  <molecular_formula>  (157) 
C18H20N2O2S

>  <iupac_name>  (157) 
not given in the paper; structure read from Figure 2B (a 4-dimethylaminophenyl group joined to the (4S)-4,5-dihydrothiazole-4-carboxylic acid through an all-E hexa-1,3,5-triene bridge)

$$$$
PN18
     RDKit          2D

 21 22  0  0  0  0  0  0  0  0999 V2000
   -8.9593   -0.6648    0.0000 O   0  0  0  0  0  0  0  0  0  0  0  0
   -7.9002    0.3974    0.0000 C   0  0  0  0  0  0  0  0  0  0  0  0
   -8.2905    1.8457    0.0000 O   0  0  0  0  0  0  0  0  0  0  0  0
   -6.4507    0.0112    0.0000 C   0  0  0  0  0  0  0  0  0  0  0  0
   -5.9112   -1.3884    0.0000 C   0  0  0  0  0  0  0  0  0  0  0  0
   -4.4134   -1.3078    0.0000 S   0  0  0  0  0  0  0  0  0  0  0  0
   -4.0272    0.1416    0.0000 C   0  0  0  0  0  0  0  0  0  0  0  0
   -2.6276    0.6812    0.0000 C   0  0  0  0  0  0  0  0  0  0  0  0
   -1.4605   -0.2612    0.0000 C   0  0  0  0  0  0  0  0  0  0  0  0
   -0.0609    0.2784    0.0000 C   0  0  0  0  0  0  0  0  0  0  0  0
    1.1061   -0.6640    0.0000 C   0  0  0  0  0  0  0  0  0  0  0  0
    2.5057   -0.1244    0.0000 C   0  0  0  0  0  0  0  0  0  0  0  0
    3.6728   -1.0668    0.0000 C   0  0  0  0  0  0  0  0  0  0  0  0
    5.0724   -0.5272    0.0000 C   0  0  0  0  0  0  0  0  0  0  0  0
    6.2394   -1.4696    0.0000 C   0  0  0  0  0  0  0  0  0  0  0  0
    7.6391   -0.9300    0.0000 C   0  0  0  0  0  0  0  0  0  0  0  0
    7.8716    0.5518    0.0000 C   0  0  0  0  0  0  0  0  0  0  0  0
    9.2712    1.0914    0.0000 O   0  0  0  0  0  0  0  0  0  0  0  0
    6.7046    1.4942    0.0000 C   0  0  0  0  0  0  0  0  0  0  0  0
    5.3050    0.9546    0.0000 C   0  0  0  0  0  0  0  0  0  0  0  0
   -5.2864    0.9568    0.0000 N   0  0  0  0  0  0  0  0  0  0  0  0
  1  2  2  0
  2  3  1  0
  4  2  1  6
  4  5  1  0
  5  6  1  0
  6  7  1  0
  7  8  1  0
  8  9  2  0
  9 10  1  0
 10 11  2  0
 11 12  1  0
 12 13  2  0
 13 14  1  0
 14 15  1  0
 15 16  2  0
 16 17  1  0
 17 18  1  0
 17 19  2  0
 19 20  1  0
  7 21  2  0
 21  4  1  0
 20 14  2  0
M  END
>  <compound_id>  (158) 
PN18

>  <name>  (158) 
Kamiya 2021 analogue 1d (hydroxy phenylhexatriene luciferin)

>  <structural_class>  (158) 
pi-Extended luciferins in which the benzothiazole is absent

>  <subfamily>  (158) 
benzene

>  <smiles>  (158) 
O=C(O)[C@H]1CSC(/C=C/C=C/C=C/c2ccc(O)cc2)=N1

>  <inchi>  (158) 
InChI=1S/C16H15NO3S/c18-13-9-7-12(8-10-13)5-3-1-2-4-6-15-17-14(11-21-15)16(19)20/h1-10,14,18H,11H2,(H,19,20)/b2-1+,5-3+,6-4+/t14-/m1/s1

>  <inchikey>  (158) 
IEIHZSNLGNPUNT-XNDWYXLHSA-N

>  <molecular_formula>  (158) 
C16H15NO3S

>  <iupac_name>  (158) 
not given in the paper; structure read from Figure 2B (a 4-hydroxyphenyl group joined to the (4S)-4,5-dihydrothiazole-4-carboxylic acid through an all-E hexa-1,3,5-triene bridge)

$$$$
PN19
     RDKit          2D

 21 23  0  0  0  0  0  0  0  0999 V2000
   -7.7142    0.7478    0.0000 O   0  0  0  0  0  0  0  0  0  0  0  0
   -6.2705    1.1550    0.0000 C   0  0  0  0  0  0  0  0  0  0  0  0
   -5.9013    2.6088    0.0000 O   0  0  0  0  0  0  0  0  0  0  0  0
   -5.1961    0.1083    0.0000 C   0  0  0  0  0  0  0  0  0  0  0  0
   -5.4114   -1.3762    0.0000 C   0  0  0  0  0  0  0  0  0  0  0  0
   -4.0661   -2.0397    0.0000 S   0  0  0  0  0  0  0  0  0  0  0  0
   -3.0194   -0.9652    0.0000 C   0  0  0  0  0  0  0  0  0  0  0  0
   -1.5349   -1.1805    0.0000 C   0  0  0  0  0  0  0  0  0  0  0  0
   -0.6062   -0.0025    0.0000 C   0  0  0  0  0  0  0  0  0  0  0  0
    0.8783   -0.2178    0.0000 C   0  0  0  0  0  0  0  0  0  0  0  0
    1.4341   -1.6110    0.0000 C   0  0  0  0  0  0  0  0  0  0  0  0
    2.9185   -1.8263    0.0000 C   0  0  0  0  0  0  0  0  0  0  0  0
    3.8472   -0.6483    0.0000 C   0  0  0  0  0  0  0  0  0  0  0  0
    5.3317   -0.8636    0.0000 C   0  0  0  0  0  0  0  0  0  0  0  0
    6.2603    0.3144    0.0000 C   0  0  0  0  0  0  0  0  0  0  0  0
    7.7448    0.0991    0.0000 O   0  0  0  0  0  0  0  0  0  0  0  0
    5.7045    1.7076    0.0000 C   0  0  0  0  0  0  0  0  0  0  0  0
    4.2200    1.9229    0.0000 C   0  0  0  0  0  0  0  0  0  0  0  0
    3.2914    0.7449    0.0000 C   0  0  0  0  0  0  0  0  0  0  0  0
    1.8069    0.9602    0.0000 C   0  0  0  0  0  0  0  0  0  0  0  0
   -3.7178    0.3623    0.0000 N   0  0  0  0  0  0  0  0  0  0  0  0
  1  2  2  0
  2  3  1  0
  4  2  1  6
  4  5  1  0
  5  6  1  0
  6  7  1  0
  7  8  1  0
  8  9  2  0
  9 10  1  0
 10 11  2  0
 11 12  1  0
 12 13  2  0
 13 14  1  0
 14 15  2  0
 15 16  1  0
 15 17  1  0
 17 18  2  0
 18 19  1  0
 19 20  2  0
  7 21  2  0
 21  4  1  0
 20 10  1  0
 19 13  1  0
M  END
>  <compound_id>  (159) 
PN19

>  <name>  (159) 
NapVLuc

>  <structural_class>  (159) 
pi-Extended luciferins in which the benzothiazole is absent

>  <subfamily>  (159) 
naphthalene

>  <smiles>  (159) 
O=C(O)[C@H]1CSC(/C=C/c2ccc3cc(O)ccc3c2)=N1

>  <inchi>  (159) 
InChI=1S/C16H13NO3S/c18-13-5-4-11-7-10(1-3-12(11)8-13)2-6-15-17-14(9-21-15)16(19)20/h1-8,14,18H,9H2,(H,19,20)/b6-2+/t14-/m1/s1

>  <inchikey>  (159) 
GHFIBEBCBJGODW-HSVJCBRXSA-N

>  <molecular_formula>  (159) 
C16H13NO3S

>  <iupac_name>  (159) 
(4S)-2--4,5-dihydro-1,3-thiazole-4-carboxylic acid

$$$$
PN20
     RDKit          2D

 22 24  0  0  0  0  0  0  0  0999 V2000
   -7.6647    2.0406    0.0000 C   0  0  0  0  0  0  0  0  0  0  0  0
   -6.9394    0.7276    0.0000 N   0  0  0  0  0  0  0  0  0  0  0  0
   -7.5752   -0.6309    0.0000 C   0  0  0  0  0  0  0  0  0  0  0  0
   -6.4797   -1.6555    0.0000 C   0  0  0  0  0  0  0  0  0  0  0  0
   -5.1667   -0.9302    0.0000 C   0  0  0  0  0  0  0  0  0  0  0  0
   -3.7491   -1.4205    0.0000 C   0  0  0  0  0  0  0  0  0  0  0  0
   -2.6157   -0.4381    0.0000 C   0  0  0  0  0  0  0  0  0  0  0  0
   -1.1981   -0.9284    0.0000 C   0  0  0  0  0  0  0  0  0  0  0  0
   -0.0646    0.0540    0.0000 C   0  0  0  0  0  0  0  0  0  0  0  0
    1.3530   -0.4363    0.0000 C   0  0  0  0  0  0  0  0  0  0  0  0
    2.4864    0.5461    0.0000 C   0  0  0  0  0  0  0  0  0  0  0  0
    3.9040    0.0558    0.0000 C   0  0  0  0  0  0  0  0  0  0  0  0
    5.1340    0.9144    0.0000 N   0  0  0  0  0  0  0  0  0  0  0  0
    6.3306    0.0099    0.0000 C   0  0  0  0  0  0  0  0  0  0  0  0
    7.7657    0.4465    0.0000 C   0  0  0  0  0  0  0  0  0  0  0  0
    8.1052    1.9075    0.0000 O   0  0  0  0  0  0  0  0  0  0  0  0
    8.8613   -0.5781    0.0000 O   0  0  0  0  0  0  0  0  0  0  0  0
    5.8403   -1.4076    0.0000 C   0  0  0  0  0  0  0  0  0  0  0  0
    4.3405   -1.3793    0.0000 S   0  0  0  0  0  0  0  0  0  0  0  0
   -2.8998    1.0348    0.0000 C   0  0  0  0  0  0  0  0  0  0  0  0
   -4.3173    1.5252    0.0000 C   0  0  0  0  0  0  0  0  0  0  0  0
   -5.4508    0.5427    0.0000 C   0  0  0  0  0  0  0  0  0  0  0  0
  1  2  1  0
  2  3  1  0
  3  4  1  0
  4  5  1  0
  5  6  1  0
  6  7  2  0
  7  8  1  0
  8  9  2  0
  9 10  1  0
 10 11  2  0
 11 12  1  0
 12 13  2  0
 13 14  1  0
 14 15  1  1
 15 16  2  0
 15 17  1  0
 14 18  1  0
 18 19  1  0
  7 20  1  0
 20 21  2  0
 21 22  1  0
 22  2  1  0
 22  5  2  0
 19 12  1  0
M  END
>  <compound_id>  (160) 
PN20

>  <name>  (160) 
NIRLuc1

>  <structural_class>  (160) 
pi-Extended luciferins in which the benzothiazole is absent

>  <subfamily>  (160) 
benzene

>  <smiles>  (160) 
CN1CCc2cc(/C=C/C=C/C3=N[C@@H](C(=O)O)CS3)ccc21

>  <inchi>  (160) 
InChI=1S/C17H18N2O2S/c1-19-9-8-13-10-12(6-7-15(13)19)4-2-3-5-16-18-14(11-22-16)17(20)21/h2-7,10,14H,8-9,11H2,1H3,(H,20,21)/b4-2+,5-3+/t14-/m1/s1

>  <inchikey>  (160) 
DYJSVBMSVTWSCS-MNXWIYACSA-N

>  <molecular_formula>  (160) 
C17H18N2O2S

>  <iupac_name>  (160) 
(4S)-2--4,5-dihydro-1,3-thiazole-4-carboxylic acid

$$$$
PN21
     RDKit          2D

 23 25  0  0  0  0  0  0  0  0999 V2000
   -6.9941   -2.1163    0.0000 C   0  0  0  0  0  0  0  0  0  0  0  0
   -6.5246   -0.6917    0.0000 N   0  0  0  0  0  0  0  0  0  0  0  0
   -7.5236    0.4272    0.0000 C   0  0  0  0  0  0  0  0  0  0  0  0
   -7.0541    1.8519    0.0000 C   0  0  0  0  0  0  0  0  0  0  0  0
   -5.5856    2.1576    0.0000 C   0  0  0  0  0  0  0  0  0  0  0  0
   -4.5866    1.0386    0.0000 C   0  0  0  0  0  0  0  0  0  0  0  0
   -3.1180    1.3443    0.0000 C   0  0  0  0  0  0  0  0  0  0  0  0
   -2.1190    0.2254    0.0000 C   0  0  0  0  0  0  0  0  0  0  0  0
   -0.6505    0.5311    0.0000 C   0  0  0  0  0  0  0  0  0  0  0  0
    0.3485   -0.5878    0.0000 C   0  0  0  0  0  0  0  0  0  0  0  0
    1.8170   -0.2821    0.0000 C   0  0  0  0  0  0  0  0  0  0  0  0
    2.8160   -1.4011    0.0000 C   0  0  0  0  0  0  0  0  0  0  0  0
    4.2845   -1.0954    0.0000 C   0  0  0  0  0  0  0  0  0  0  0  0
    4.9004    0.2724    0.0000 N   0  0  0  0  0  0  0  0  0  0  0  0
    6.3915    0.1093    0.0000 C   0  0  0  0  0  0  0  0  0  0  0  0
    7.3999    1.2198    0.0000 C   0  0  0  0  0  0  0  0  0  0  0  0
    6.9423    2.6483    0.0000 O   0  0  0  0  0  0  0  0  0  0  0  0
    8.8658    0.9017    0.0000 O   0  0  0  0  0  0  0  0  0  0  0  0
    6.6972   -1.3592    0.0000 C   0  0  0  0  0  0  0  0  0  0  0  0
    5.3950   -2.1038    0.0000 S   0  0  0  0  0  0  0  0  0  0  0  0
   -2.5886   -1.1992    0.0000 C   0  0  0  0  0  0  0  0  0  0  0  0
   -4.0571   -1.5049    0.0000 C   0  0  0  0  0  0  0  0  0  0  0  0
   -5.0561   -0.3860    0.0000 C   0  0  0  0  0  0  0  0  0  0  0  0
  1  2  1  0
  2  3  1  0
  3  4  1  0
  4  5  1  0
  5  6  1  0
  6  7  1  0
  7  8  2  0
  8  9  1  0
  9 10  2  0
 10 11  1  0
 11 12  2  0
 12 13  1  0
 13 14  2  0
 14 15  1  0
 15 16  1  1
 16 17  2  0
 16 18  1  0
 15 19  1  0
 19 20  1  0
  8 21  1  0
 21 22  2  0
 22 23  1  0
 23  2  1  0
 23  6  2  0
 20 13  1  0
M  END
>  <compound_id>  (161) 
PN21

>  <name>  (161) 
NIRLuc2

>  <structural_class>  (161) 
pi-Extended luciferins in which the benzothiazole is absent

>  <subfamily>  (161) 
benzene

>  <smiles>  (161) 
CN1CCCc2cc(/C=C/C=C/C3=N[C@@H](C(=O)O)CS3)ccc21

>  <inchi>  (161) 
InChI=1S/C18H20N2O2S/c1-20-10-4-6-14-11-13(8-9-16(14)20)5-2-3-7-17-19-15(12-23-17)18(21)22/h2-3,5,7-9,11,15H,4,6,10,12H2,1H3,(H,21,22)/b5-2+,7-3+/t15-/m1/s1

>  <inchikey>  (161) 
ZLPUSVUJVONCBH-SJEAQNOVSA-N

>  <molecular_formula>  (161) 
C18H20N2O2S

>  <iupac_name>  (161) 
(4S)-2--4,5-dihydro-1,3-thiazole-4-carboxylic acid

$$$$
PN22
     RDKit          2D

 25 27  0  0  0  0  0  0  0  0999 V2000
   -6.2304    3.0619    0.0000 C   0  0  0  0  0  0  0  0  0  0  0  0
   -6.0175    1.5771    0.0000 N   0  0  0  0  0  0  0  0  0  0  0  0
   -7.1970    0.6504    0.0000 C   0  0  0  0  0  0  0  0  0  0  0  0
   -6.9842   -0.8345    0.0000 C   0  0  0  0  0  0  0  0  0  0  0  0
   -5.5919   -1.3926    0.0000 C   0  0  0  0  0  0  0  0  0  0  0  0
   -6.3832   -2.6668    0.0000 C   0  0  0  0  0  0  0  0  0  0  0  0
   -4.4744   -2.3932    0.0000 C   0  0  0  0  0  0  0  0  0  0  0  0
   -4.4124   -0.4658    0.0000 C   0  0  0  0  0  0  0  0  0  0  0  0
   -3.0201   -1.0239    0.0000 C   0  0  0  0  0  0  0  0  0  0  0  0
   -1.8406   -0.0972    0.0000 C   0  0  0  0  0  0  0  0  0  0  0  0
   -0.4483   -0.6552    0.0000 C   0  0  0  0  0  0  0  0  0  0  0  0
    0.7312    0.2715    0.0000 C   0  0  0  0  0  0  0  0  0  0  0  0
    2.1235   -0.2866    0.0000 C   0  0  0  0  0  0  0  0  0  0  0  0
    3.3030    0.6401    0.0000 C   0  0  0  0  0  0  0  0  0  0  0  0
    4.6953    0.0821    0.0000 C   0  0  0  0  0  0  0  0  0  0  0  0
    5.9652    0.8804    0.0000 N   0  0  0  0  0  0  0  0  0  0  0  0
    7.1169   -0.0806    0.0000 C   0  0  0  0  0  0  0  0  0  0  0  0
    8.5713    0.2863    0.0000 C   0  0  0  0  0  0  0  0  0  0  0  0
    8.9808    1.7293    0.0000 O   0  0  0  0  0  0  0  0  0  0  0  0
    9.6163   -0.7899    0.0000 O   0  0  0  0  0  0  0  0  0  0  0  0
    6.5588   -1.4729    0.0000 C   0  0  0  0  0  0  0  0  0  0  0  0
    5.0622   -1.3724    0.0000 S   0  0  0  0  0  0  0  0  0  0  0  0
   -2.0534    1.3877    0.0000 C   0  0  0  0  0  0  0  0  0  0  0  0
   -3.4458    1.9457    0.0000 C   0  0  0  0  0  0  0  0  0  0  0  0
   -4.6252    1.0190    0.0000 C   0  0  0  0  0  0  0  0  0  0  0  0
  1  2  1  0
  2  3  1  0
  3  4  1  0
  4  5  1  0
  5  6  1  0
  5  7  1  0
  5  8  1  0
  8  9  1  0
  9 10  2  0
 10 11  1  0
 11 12  2  0
 12 13  1  0
 13 14  2  0
 14 15  1  0
 15 16  2  0
 16 17  1  0
 17 18  1  1
 18 19  2  0
 18 20  1  0
 17 21  1  0
 21 22  1  0
 10 23  1  0
 23 24  2  0
 24 25  1  0
 25  2  1  0
 25  8  2  0
 22 15  1  0
M  END
>  <compound_id>  (162) 
PN22

>  <name>  (162) 
NIRLuc3

>  <structural_class>  (162) 
pi-Extended luciferins in which the benzothiazole is absent

>  <subfamily>  (162) 
benzene

>  <smiles>  (162) 
CN1CCC(C)(C)c2cc(/C=C/C=C/C3=N[C@@H](C(=O)O)CS3)ccc21

>  <inchi>  (162) 
InChI=1S/C20H24N2O2S/c1-20(2)10-11-22(3)17-9-8-14(12-15(17)20)6-4-5-7-18-21-16(13-25-18)19(23)24/h4-9,12,16H,10-11,13H2,1-3H3,(H,23,24)/b6-4+,7-5+/t16-/m1/s1

>  <inchikey>  (162) 
IVIMQKHZLZULSF-SQVJQECCSA-N

>  <molecular_formula>  (162) 
C20H24N2O2S

>  <iupac_name>  (162) 
(4S)-2--4,5-dihydro-1,3-thiazole-4-carboxylic acid

$$$$
PN23
     RDKit          2D

 23 25  0  0  0  0  0  0  0  0999 V2000
   -6.9941   -2.1163    0.0000 C   0  0  0  0  0  0  0  0  0  0  0  0
   -6.5246   -0.6917    0.0000 N   0  0  0  0  0  0  0  0  0  0  0  0
   -7.5236    0.4272    0.0000 C   0  0  0  0  0  0  0  0  0  0  0  0
   -7.0541    1.8519    0.0000 C   0  0  0  0  0  0  0  0  0  0  0  0
   -5.5856    2.1576    0.0000 O   0  0  0  0  0  0  0  0  0  0  0  0
   -4.5866    1.0386    0.0000 C   0  0  0  0  0  0  0  0  0  0  0  0
   -3.1180    1.3443    0.0000 C   0  0  0  0  0  0  0  0  0  0  0  0
   -2.1190    0.2254    0.0000 C   0  0  0  0  0  0  0  0  0  0  0  0
   -0.6505    0.5311    0.0000 C   0  0  0  0  0  0  0  0  0  0  0  0
    0.3485   -0.5878    0.0000 C   0  0  0  0  0  0  0  0  0  0  0  0
    1.8170   -0.2821    0.0000 C   0  0  0  0  0  0  0  0  0  0  0  0
    2.8160   -1.4011    0.0000 C   0  0  0  0  0  0  0  0  0  0  0  0
    4.2845   -1.0954    0.0000 C   0  0  0  0  0  0  0  0  0  0  0  0
    4.9004    0.2724    0.0000 N   0  0  0  0  0  0  0  0  0  0  0  0
    6.3915    0.1093    0.0000 C   0  0  0  0  0  0  0  0  0  0  0  0
    7.3999    1.2198    0.0000 C   0  0  0  0  0  0  0  0  0  0  0  0
    6.9423    2.6483    0.0000 O   0  0  0  0  0  0  0  0  0  0  0  0
    8.8658    0.9017    0.0000 O   0  0  0  0  0  0  0  0  0  0  0  0
    6.6972   -1.3592    0.0000 C   0  0  0  0  0  0  0  0  0  0  0  0
    5.3950   -2.1038    0.0000 S   0  0  0  0  0  0  0  0  0  0  0  0
   -2.5886   -1.1992    0.0000 C   0  0  0  0  0  0  0  0  0  0  0  0
   -4.0571   -1.5049    0.0000 C   0  0  0  0  0  0  0  0  0  0  0  0
   -5.0561   -0.3860    0.0000 C   0  0  0  0  0  0  0  0  0  0  0  0
  1  2  1  0
  2  3  1  0
  3  4  1  0
  4  5  1  0
  5  6  1  0
  6  7  1  0
  7  8  2  0
  8  9  1  0
  9 10  2  0
 10 11  1  0
 11 12  2  0
 12 13  1  0
 13 14  2  0
 14 15  1  0
 15 16  1  1
 16 17  2  0
 16 18  1  0
 15 19  1  0
 19 20  1  0
  8 21  1  0
 21 22  2  0
 22 23  1  0
 23  2  1  0
 23  6  2  0
 20 13  1  0
M  END
>  <compound_id>  (163) 
PN23

>  <name>  (163) 
NIRLuc4

>  <structural_class>  (163) 
pi-Extended luciferins in which the benzothiazole is absent

>  <subfamily>  (163) 
benzene

>  <smiles>  (163) 
CN1CCOc2cc(/C=C/C=C/C3=N[C@@H](C(=O)O)CS3)ccc21

>  <inchi>  (163) 
InChI=1S/C17H18N2O3S/c1-19-8-9-22-15-10-12(6-7-14(15)19)4-2-3-5-16-18-13(11-23-16)17(20)21/h2-7,10,13H,8-9,11H2,1H3,(H,20,21)/b4-2+,5-3+/t13-/m1/s1

>  <inchikey>  (163) 
GBHBQJLBMWYURR-LSVCTKACSA-N

>  <molecular_formula>  (163) 
C17H18N2O3S

>  <iupac_name>  (163) 
(4S)-2--4,5-dihydro-1,3-thiazole-4-carboxylic acid

$$$$
PN24
     RDKit          2D

 25 28  0  0  0  0  0  0  0  0999 V2000
   -9.6063   -0.4573    0.0000 O   0  0  0  0  0  0  0  0  0  0  0  0
   -8.4719    0.5242    0.0000 C   0  0  0  0  0  0  0  0  0  0  0  0
   -8.7546    1.9973    0.0000 O   0  0  0  0  0  0  0  0  0  0  0  0
   -7.0547    0.0325    0.0000 C   0  0  0  0  0  0  0  0  0  0  0  0
   -6.6196   -1.4030    0.0000 C   0  0  0  0  0  0  0  0  0  0  0  0
   -5.1199   -1.4327    0.0000 S   0  0  0  0  0  0  0  0  0  0  0  0
   -4.6282   -0.0156    0.0000 C   0  0  0  0  0  0  0  0  0  0  0  0
   -3.1927    0.4196    0.0000 C   0  0  0  0  0  0  0  0  0  0  0  0
   -2.0981   -0.6060    0.0000 C   0  0  0  0  0  0  0  0  0  0  0  0
   -0.6626   -0.1708    0.0000 C   0  0  0  0  0  0  0  0  0  0  0  0
    0.4320   -1.1964    0.0000 C   0  0  0  0  0  0  0  0  0  0  0  0
    1.8675   -0.7612    0.0000 C   0  0  0  0  0  0  0  0  0  0  0  0
    2.2084    0.6995    0.0000 C   0  0  0  0  0  0  0  0  0  0  0  0
    3.6439    1.1347    0.0000 C   0  0  0  0  0  0  0  0  0  0  0  0
    4.7385    0.1091    0.0000 C   0  0  0  0  0  0  0  0  0  0  0  0
    4.3976   -1.3516    0.0000 C   0  0  0  0  0  0  0  0  0  0  0  0
    2.9621   -1.7868    0.0000 C   0  0  0  0  0  0  0  0  0  0  0  0
    5.4922   -2.3772    0.0000 C   0  0  0  0  0  0  0  0  0  0  0  0
    6.9277   -1.9420    0.0000 C   0  0  0  0  0  0  0  0  0  0  0  0
    7.2686   -0.4813    0.0000 C   0  0  0  0  0  0  0  0  0  0  0  0
    6.1740    0.5443    0.0000 N   0  0  0  0  0  0  0  0  0  0  0  0
    6.5148    2.0051    0.0000 C   0  0  0  0  0  0  0  0  0  0  0  0
    5.4202    3.0306    0.0000 C   0  0  0  0  0  0  0  0  0  0  0  0
    3.9847    2.5955    0.0000 C   0  0  0  0  0  0  0  0  0  0  0  0
   -5.8240    0.8899    0.0000 N   0  0  0  0  0  0  0  0  0  0  0  0
  1  2  2  0
  2  3  1  0
  4  2  1  6
  4  5  1  0
  5  6  1  0
  6  7  1  0
  7  8  1  0
  8  9  2  0
  9 10  1  0
 10 11  2  0
 11 12  1  0
 12 13  2  0
 13 14  1  0
 14 15  2  0
 15 16  1  0
 16 17  2  0
 16 18  1  0
 18 19  1  0
 19 20  1  0
 20 21  1  0
 21 22  1  0
 22 23  1  0
 23 24  1  0
  7 25  2  0
 25  4  1  0
 17 12  1  0
 24 14  1  0
 21 15  1  0
M  END
>  <compound_id>  (164) 
PN24

>  <name>  (164) 
NIRLuc5

>  <structural_class>  (164) 
pi-Extended luciferins in which the benzothiazole is absent

>  <subfamily>  (164) 
benzene

>  <smiles>  (164) 
O=C(O)[C@H]1CSC(/C=C/C=C/c2cc3c4c(c2)CCCN4CCC3)=N1

>  <inchi>  (164) 
InChI=1S/C20H22N2O2S/c23-20(24)17-13-25-18(21-17)8-2-1-5-14-11-15-6-3-9-22-10-4-7-16(12-14)19(15)22/h1-2,5,8,11-12,17H,3-4,6-7,9-10,13H2,(H,23,24)/b5-1+,8-2+/t17-/m1/s1

>  <inchikey>  (164) 
NIAOBBZHIDXUPI-ZHKNKUJSSA-N

>  <molecular_formula>  (164) 
C20H22N2O2S

>  <iupac_name>  (164) 
(4S)-2-[(1E,3E)-4-(2,3,6,7-tetrahydro-1H,5H-pyridoquinolin-9-yl)buta-1,3-dien-1-yl]-4,5-dihydro-1,3-thiazole-4-carboxylic acid

$$$$
PN25
     RDKit          2D

 26 28  0  0  0  0  0  0  0  0999 V2000
   -4.3360    3.3253    0.0000 C   0  0  0  0  0  0  0  0  0  0  0  0
   -4.7708    1.8897    0.0000 C   0  0  0  0  0  0  0  0  0  0  0  0
   -6.2315    1.5485    0.0000 C   0  0  0  0  0  0  0  0  0  0  0  0
   -6.6663    0.1129    0.0000 C   0  0  0  0  0  0  0  0  0  0  0  0
   -8.0045    0.7904    0.0000 C   0  0  0  0  0  0  0  0  0  0  0  0
   -7.5659   -1.0874    0.0000 C   0  0  0  0  0  0  0  0  0  0  0  0
   -5.6404   -0.9815    0.0000 N   0  0  0  0  0  0  0  0  0  0  0  0
   -6.0752   -2.4171    0.0000 C   0  0  0  0  0  0  0  0  0  0  0  0
   -4.1797   -0.6402    0.0000 C   0  0  0  0  0  0  0  0  0  0  0  0
   -3.1539   -1.7346    0.0000 C   0  0  0  0  0  0  0  0  0  0  0  0
   -1.6932   -1.3934    0.0000 C   0  0  0  0  0  0  0  0  0  0  0  0
   -1.2584    0.0422    0.0000 C   0  0  0  0  0  0  0  0  0  0  0  0
    0.2023    0.3835    0.0000 C   0  0  0  0  0  0  0  0  0  0  0  0
    1.2281   -0.7109    0.0000 C   0  0  0  0  0  0  0  0  0  0  0  0
    2.6888   -0.3696    0.0000 C   0  0  0  0  0  0  0  0  0  0  0  0
    3.7147   -1.4640    0.0000 C   0  0  0  0  0  0  0  0  0  0  0  0
    5.1753   -1.1227    0.0000 C   0  0  0  0  0  0  0  0  0  0  0  0
    5.7578    0.2595    0.0000 N   0  0  0  0  0  0  0  0  0  0  0  0
    7.2524    0.1327    0.0000 C   0  0  0  0  0  0  0  0  0  0  0  0
    8.2336    1.2673    0.0000 C   0  0  0  0  0  0  0  0  0  0  0  0
    7.7415    2.6843    0.0000 O   0  0  0  0  0  0  0  0  0  0  0  0
    9.7068    0.9850    0.0000 O   0  0  0  0  0  0  0  0  0  0  0  0
    7.5937   -1.3280    0.0000 C   0  0  0  0  0  0  0  0  0  0  0  0
    6.3100   -2.1039    0.0000 S   0  0  0  0  0  0  0  0  0  0  0  0
   -2.2843    1.1366    0.0000 C   0  0  0  0  0  0  0  0  0  0  0  0
   -3.7449    0.7954    0.0000 C   0  0  0  0  0  0  0  0  0  0  0  0
  1  2  1  0
  2  3  2  0
  3  4  1  0
  4  5  1  0
  4  6  1  0
  4  7  1  0
  7  8  1  0
  7  9  1  0
  9 10  1  0
 10 11  2  0
 11 12  1  0
 12 13  1  0
 13 14  2  0
 14 15  1  0
 15 16  2  0
 16 17  1  0
 17 18  2  0
 18 19  1  0
 19 20  1  1
 20 21  2  0
 20 22  1  0
 19 23  1  0
 23 24  1  0
 12 25  2  0
 25 26  1  0
 26  2  1  0
 26  9  2  0
 24 17  1  0
M  END
>  <compound_id>  (165) 
PN25

>  <name>  (165) 
NIRLuc6

>  <structural_class>  (165) 
pi-Extended luciferins in which the benzothiazole is absent

>  <subfamily>  (165) 
benzene

>  <smiles>  (165) 
CC1=CC(C)(C)N(C)c2ccc(/C=C/C=C/C3=N[C@@H](C(=O)O)CS3)cc21

>  <inchi>  (165) 
InChI=1S/C21H24N2O2S/c1-14-12-21(2,3)23(4)18-10-9-15(11-16(14)18)7-5-6-8-19-22-17(13-26-19)20(24)25/h5-12,17H,13H2,1-4H3,(H,24,25)/b7-5+,8-6+/t17-/m1/s1

>  <inchikey>  (165) 
UMYBDJXBEHOYBC-QGIGQLMMSA-N

>  <molecular_formula>  (165) 
C21H24N2O2S

>  <iupac_name>  (165) 
(4S)-2--4,5-dihydro-1,3-thiazole-4-carboxylic acid

$$$$
PN26
     RDKit          2D

 21 23  0  0  0  0  0  0  0  0999 V2000
   -8.1107   -0.1378    0.0000 O   0  0  0  0  0  0  0  0  0  0  0  0
   -6.8903    0.7343    0.0000 C   0  0  0  0  0  0  0  0  0  0  0  0
   -7.0353    2.2273    0.0000 O   0  0  0  0  0  0  0  0  0  0  0  0
   -5.5248    0.1134    0.0000 C   0  0  0  0  0  0  0  0  0  0  0  0
   -5.2245   -1.3562    0.0000 C   0  0  0  0  0  0  0  0  0  0  0  0
   -3.7340   -1.5247    0.0000 S   0  0  0  0  0  0  0  0  0  0  0  0
   -3.1131   -0.1593    0.0000 C   0  0  0  0  0  0  0  0  0  0  0  0
   -1.6435    0.1411    0.0000 C   0  0  0  0  0  0  0  0  0  0  0  0
   -0.6486   -0.9815    0.0000 C   0  0  0  0  0  0  0  0  0  0  0  0
    0.8210   -0.6812    0.0000 C   0  0  0  0  0  0  0  0  0  0  0  0
    1.8159   -1.8038    0.0000 C   0  0  0  0  0  0  0  0  0  0  0  0
    3.2856   -1.5035    0.0000 C   0  0  0  0  0  0  0  0  0  0  0  0
    3.7603   -0.0806    0.0000 C   0  0  0  0  0  0  0  0  0  0  0  0
    5.2299    0.2197    0.0000 N   0  0  0  0  0  0  0  0  0  0  0  0
    5.8508    1.5852    0.0000 C   0  0  0  0  0  0  0  0  0  0  0  0
    7.3413    1.4166    0.0000 C   0  0  0  0  0  0  0  0  0  0  0  0
    7.6416   -0.0530    0.0000 C   0  0  0  0  0  0  0  0  0  0  0  0
    6.3367   -0.7928    0.0000 C   0  0  0  0  0  0  0  0  0  0  0  0
    2.7654    1.0420    0.0000 C   0  0  0  0  0  0  0  0  0  0  0  0
    1.2958    0.7417    0.0000 C   0  0  0  0  0  0  0  0  0  0  0  0
   -4.2199    0.8532    0.0000 N   0  0  0  0  0  0  0  0  0  0  0  0
  1  2  2  0
  2  3  1  0
  4  2  1  6
  4  5  1  0
  5  6  1  0
  6  7  1  0
  7  8  1  0
  8  9  2  0
  9 10  1  0
 10 11  1  0
 11 12  2  0
 12 13  1  0
 13 14  1  0
 14 15  1  0
 15 16  1  0
 16 17  1  0
 17 18  1  0
 13 19  2  0
 19 20  1  0
  7 21  2  0
 21  4  1  0
 20 10  2  0
 18 14  1  0
M  END
>  <compound_id>  (166) 
PN26

>  <name>  (166) 
PyrrStyLuc

>  <structural_class>  (166) 
pi-Extended luciferins in which the benzothiazole is absent

>  <subfamily>  (166) 
benzene

>  <smiles>  (166) 
O=C(O)[C@H]1CSC(/C=C/c2ccc(N3CCCC3)cc2)=N1

>  <inchi>  (166) 
InChI=1S/C16H18N2O2S/c19-16(20)14-11-21-15(17-14)8-5-12-3-6-13(7-4-12)18-9-1-2-10-18/h3-8,14H,1-2,9-11H2,(H,19,20)/b8-5+/t14-/m1/s1

>  <inchikey>  (166) 
APZYKENQSCOMQL-LHRNQBEKSA-N

>  <molecular_formula>  (166) 
C16H18N2O2S

>  <iupac_name>  (166) 
(4S)-2-[(E)-2-ethenyl]-4,5-dihydro-1,3-thiazole-4-carboxylic acid

$$$$
PN27
     RDKit          2D

 21 22  0  0  0  0  0  0  0  0999 V2000
   -8.0840    1.0268    0.0000 C   0  0  0  0  0  0  0  0  0  0  0  0
   -7.1427   -0.1411    0.0000 N   0  0  0  0  0  0  0  0  0  0  0  0
   -7.6834   -1.5402    0.0000 C   0  0  0  0  0  0  0  0  0  0  0  0
   -5.6606    0.0903    0.0000 C   0  0  0  0  0  0  0  0  0  0  0  0
   -5.1199    1.4894    0.0000 C   0  0  0  0  0  0  0  0  0  0  0  0
   -3.6379    1.7207    0.0000 C   0  0  0  0  0  0  0  0  0  0  0  0
   -2.6965    0.5529    0.0000 C   0  0  0  0  0  0  0  0  0  0  0  0
   -1.2144    0.7842    0.0000 C   0  0  0  0  0  0  0  0  0  0  0  0
   -0.2731   -0.3836    0.0000 C   0  0  0  0  0  0  0  0  0  0  0  0
    1.2090   -0.1523    0.0000 C   0  0  0  0  0  0  0  0  0  0  0  0
    2.1503   -1.3202    0.0000 C   0  0  0  0  0  0  0  0  0  0  0  0
    3.6324   -1.0889    0.0000 C   0  0  0  0  0  0  0  0  0  0  0  0
    4.3164    0.2461    0.0000 N   0  0  0  0  0  0  0  0  0  0  0  0
    5.7974    0.0081    0.0000 C   0  0  0  0  0  0  0  0  0  0  0  0
    6.8604    1.0664    0.0000 C   0  0  0  0  0  0  0  0  0  0  0  0
    6.4754    2.5162    0.0000 O   0  0  0  0  0  0  0  0  0  0  0  0
    8.3084    0.6749    0.0000 O   0  0  0  0  0  0  0  0  0  0  0  0
    6.0287   -1.4739    0.0000 C   0  0  0  0  0  0  0  0  0  0  0  0
    4.6906   -2.1519    0.0000 S   0  0  0  0  0  0  0  0  0  0  0  0
   -3.2372   -0.8463    0.0000 C   0  0  0  0  0  0  0  0  0  0  0  0
   -4.7193   -1.0776    0.0000 N   0  0  0  0  0  0  0  0  0  0  0  0
  1  2  1  0
  2  3  1  0
  2  4  1  0
  4  5  1  0
  5  6  2  0
  6  7  1  0
  7  8  1  0
  8  9  2  0
  9 10  1  0
 10 11  2  0
 11 12  1  0
 12 13  2  0
 13 14  1  0
 14 15  1  1
 15 16  2  0
 15 17  1  0
 14 18  1  0
 18 19  1  0
  7 20  2  0
 20 21  1  0
 21  4  2  0
 19 12  1  0
M  END
>  <compound_id>  (167) 
PN27

>  <name>  (167) 
Saito 2019 analogue 1b (3-pyridyl AkaLumine analogue)

>  <structural_class>  (167) 
pi-Extended luciferins in which the benzothiazole is absent

>  <subfamily>  (167) 
pyridine

>  <smiles>  (167) 
CN(C)c1ccc(/C=C/C=C/C2=N[C@@H](C(=O)O)CS2)cn1

>  <inchi>  (167) 
InChI=1S/C15H17N3O2S/c1-18(2)13-8-7-11(9-16-13)5-3-4-6-14-17-12(10-21-14)15(19)20/h3-9,12H,10H2,1-2H3,(H,19,20)/b5-3+,6-4+/t12-/m1/s1

>  <inchikey>  (167) 
ADZKNFGRJHTEAD-JVWOUTOHSA-N

>  <molecular_formula>  (167) 
C15H17N3O2S

>  <iupac_name>  (167) 
(S)-2-((1E,3E)-4-(6-(Dimethylamino)pyridin-3-yl)buta-1,3-dien-1-yl)-4,5-dihydrothiazole-4-carboxylic Acid

$$$$
PN28
     RDKit          2D

 21 22  0  0  0  0  0  0  0  0999 V2000
   -8.0840    1.0268    0.0000 C   0  0  0  0  0  0  0  0  0  0  0  0
   -7.1427   -0.1411    0.0000 N   0  0  0  0  0  0  0  0  0  0  0  0
   -7.6834   -1.5402    0.0000 C   0  0  0  0  0  0  0  0  0  0  0  0
   -5.6606    0.0903    0.0000 C   0  0  0  0  0  0  0  0  0  0  0  0
   -5.1199    1.4894    0.0000 C   0  0  0  0  0  0  0  0  0  0  0  0
   -3.6379    1.7207    0.0000 N   0  0  0  0  0  0  0  0  0  0  0  0
   -2.6965    0.5529    0.0000 C   0  0  0  0  0  0  0  0  0  0  0  0
   -1.2144    0.7842    0.0000 C   0  0  0  0  0  0  0  0  0  0  0  0
   -0.2731   -0.3836    0.0000 C   0  0  0  0  0  0  0  0  0  0  0  0
    1.2090   -0.1523    0.0000 C   0  0  0  0  0  0  0  0  0  0  0  0
    2.1503   -1.3202    0.0000 C   0  0  0  0  0  0  0  0  0  0  0  0
    3.6324   -1.0889    0.0000 C   0  0  0  0  0  0  0  0  0  0  0  0
    4.3164    0.2461    0.0000 N   0  0  0  0  0  0  0  0  0  0  0  0
    5.7974    0.0081    0.0000 C   0  0  0  0  0  0  0  0  0  0  0  0
    6.8604    1.0664    0.0000 C   0  0  0  0  0  0  0  0  0  0  0  0
    6.4754    2.5162    0.0000 O   0  0  0  0  0  0  0  0  0  0  0  0
    8.3084    0.6749    0.0000 O   0  0  0  0  0  0  0  0  0  0  0  0
    6.0287   -1.4739    0.0000 C   0  0  0  0  0  0  0  0  0  0  0  0
    4.6906   -2.1519    0.0000 S   0  0  0  0  0  0  0  0  0  0  0  0
   -3.2372   -0.8463    0.0000 C   0  0  0  0  0  0  0  0  0  0  0  0
   -4.7193   -1.0776    0.0000 N   0  0  0  0  0  0  0  0  0  0  0  0
  1  2  1  0
  2  3  1  0
  2  4  1  0
  4  5  2  0
  5  6  1  0
  6  7  2  0
  7  8  1  0
  8  9  2  0
  9 10  1  0
 10 11  2  0
 11 12  1  0
 12 13  2  0
 13 14  1  0
 14 15  1  1
 15 16  2  0
 15 17  1  0
 14 18  1  0
 18 19  1  0
  7 20  1  0
 20 21  2  0
 21  4  1  0
 19 12  1  0
M  END
>  <compound_id>  (168) 
PN28

>  <name>  (168) 
Saito 2019 analogue 1d (pyrazinyl AkaLumine analogue)

>  <structural_class>  (168) 
pi-Extended luciferins in which the benzothiazole is absent

>  <subfamily>  (168) 


>  <smiles>  (168) 
CN(C)c1cnc(/C=C/C=C/C2=N[C@@H](C(=O)O)CS2)cn1

>  <inchi>  (168) 
InChI=1S/C14H16N4O2S/c1-18(2)12-8-15-10(7-16-12)5-3-4-6-13-17-11(9-21-13)14(19)20/h3-8,11H,9H2,1-2H3,(H,19,20)/b5-3+,6-4+/t11-/m1/s1

>  <inchikey>  (168) 
FBULQRKLBAMWTK-RHHOKCBPSA-N

>  <molecular_formula>  (168) 
C14H16N4O2S

>  <iupac_name>  (168) 
(S)-2-((1E,3E)-4-(5-(dimethylamino)pyrazin-2-yl)buta-1,3-dien-1-yl)-4,5-dihydrothiazole-4-carboxylic acid

$$$$
PN29
     RDKit          2D

 21 22  0  0  0  0  0  0  0  0999 V2000
   -8.0840    1.0268    0.0000 C   0  0  0  0  0  0  0  0  0  0  0  0
   -7.1427   -0.1411    0.0000 N   0  0  0  0  0  0  0  0  0  0  0  0
   -7.6834   -1.5402    0.0000 C   0  0  0  0  0  0  0  0  0  0  0  0
   -5.6606    0.0903    0.0000 C   0  0  0  0  0  0  0  0  0  0  0  0
   -5.1199    1.4894    0.0000 C   0  0  0  0  0  0  0  0  0  0  0  0
   -3.6379    1.7207    0.0000 C   0  0  0  0  0  0  0  0  0  0  0  0
   -2.6965    0.5529    0.0000 C   0  0  0  0  0  0  0  0  0  0  0  0
   -1.2144    0.7842    0.0000 C   0  0  0  0  0  0  0  0  0  0  0  0
   -0.2731   -0.3836    0.0000 C   0  0  0  0  0  0  0  0  0  0  0  0
    1.2090   -0.1523    0.0000 C   0  0  0  0  0  0  0  0  0  0  0  0
    2.1503   -1.3202    0.0000 C   0  0  0  0  0  0  0  0  0  0  0  0
    3.6324   -1.0889    0.0000 C   0  0  0  0  0  0  0  0  0  0  0  0
    4.3164    0.2461    0.0000 N   0  0  0  0  0  0  0  0  0  0  0  0
    5.7974    0.0081    0.0000 C   0  0  0  0  0  0  0  0  0  0  0  0
    6.8604    1.0664    0.0000 C   0  0  0  0  0  0  0  0  0  0  0  0
    6.4754    2.5162    0.0000 O   0  0  0  0  0  0  0  0  0  0  0  0
    8.3084    0.6749    0.0000 O   0  0  0  0  0  0  0  0  0  0  0  0
    6.0287   -1.4739    0.0000 C   0  0  0  0  0  0  0  0  0  0  0  0
    4.6906   -2.1519    0.0000 S   0  0  0  0  0  0  0  0  0  0  0  0
   -3.2372   -0.8463    0.0000 N   0  0  0  0  0  0  0  0  0  0  0  0
   -4.7193   -1.0776    0.0000 C   0  0  0  0  0  0  0  0  0  0  0  0
  1  2  1  0
  2  3  1  0
  2  4  1  0
  4  5  1  0
  5  6  2  0
  6  7  1  0
  7  8  1  0
  8  9  2  0
  9 10  1  0
 10 11  2  0
 11 12  1  0
 12 13  2  0
 13 14  1  0
 14 15  1  1
 15 16  2  0
 15 17  1  0
 14 18  1  0
 18 19  1  0
  7 20  2  0
 20 21  1  0
 21  4  2  0
 19 12  1  0
M  END
>  <compound_id>  (169) 
PN29

>  <name>  (169) 
seMpai

>  <structural_class>  (169) 
pi-Extended luciferins in which the benzothiazole is absent

>  <subfamily>  (169) 
pyridine

>  <smiles>  (169) 
CN(C)c1ccc(/C=C/C=C/C2=N[C@@H](C(=O)O)CS2)nc1

>  <inchi>  (169) 
InChI=1S/C15H17N3O2S/c1-18(2)12-8-7-11(16-9-12)5-3-4-6-14-17-13(10-21-14)15(19)20/h3-9,13H,10H2,1-2H3,(H,19,20)/b5-3+,6-4+/t13-/m1/s1

>  <inchikey>  (169) 
WGXDAPPPMLTSSC-ORQLPXSXSA-N

>  <molecular_formula>  (169) 
C15H17N3O2S

>  <iupac_name>  (169) 
(S)-2-((1E,3E)-4-(5-(Dimethylamino)pyridin-2-yl)buta-1,3-dien-1-yl)-4,5-dihydrothiazole-4-carboxylic acid

$$$$
CO01
     RDKit          2D

 26 28  0  0  0  0  0  0  0  0999 V2000
   -4.9499   -4.2074    0.0000 C   0  0  0  0  0  0  0  0  0  0  0  0
   -3.5064   -3.7997    0.0000 N   0  0  0  0  0  0  0  0  0  0  0  0
   -2.4316   -4.8461    0.0000 C   0  0  0  0  0  0  0  0  0  0  0  0
   -3.1376   -2.3458    0.0000 C   0  0  0  0  0  0  0  0  0  0  0  0
   -4.2124   -1.2994    0.0000 C   0  0  0  0  0  0  0  0  0  0  0  0
   -3.8436    0.1545    0.0000 C   0  0  0  0  0  0  0  0  0  0  0  0
   -2.4001    0.5622    0.0000 C   0  0  0  0  0  0  0  0  0  0  0  0
   -1.3253   -0.4842    0.0000 C   0  0  0  0  0  0  0  0  0  0  0  0
   -1.6941   -1.9381    0.0000 C   0  0  0  0  0  0  0  0  0  0  0  0
    0.1182   -0.0765    0.0000 O   0  0  0  0  0  0  0  0  0  0  0  0
    0.4870    1.3774    0.0000 C   0  0  0  0  0  0  0  0  0  0  0  0
    1.9306    1.7851    0.0000 C   0  0  0  0  0  0  0  0  0  0  0  0
    3.0053    0.7387    0.0000 C   0  0  0  0  0  0  0  0  0  0  0  0
    4.4836    0.9932    0.0000 N   0  0  0  0  0  0  0  0  0  0  0  0
    5.1825   -0.3340    0.0000 C   0  0  0  0  0  0  0  0  0  0  0  0
    6.6670   -0.5488    0.0000 C   0  0  0  0  0  0  0  0  0  0  0  0
    7.5953    0.6295    0.0000 O   0  0  0  0  0  0  0  0  0  0  0  0
    7.2233   -1.9418    0.0000 O   0  0  0  0  0  0  0  0  0  0  0  0
    4.1361   -1.4088    0.0000 C   0  0  0  0  0  0  0  0  0  0  0  0
    2.7906   -0.7458    0.0000 S   0  0  0  0  0  0  0  0  0  0  0  0
   -0.5878    2.4238    0.0000 C   0  0  0  0  0  0  0  0  0  0  0  0
   -2.0313    2.0161    0.0000 C   0  0  0  0  0  0  0  0  0  0  0  0
   -3.1061    3.0625    0.0000 C   0  0  0  0  0  0  0  0  0  0  0  0
   -4.1809    4.1088    0.0000 F   0  0  0  0  0  0  0  0  0  0  0  0
   -2.0598    4.1372    0.0000 F   0  0  0  0  0  0  0  0  0  0  0  0
   -4.1525    1.9877    0.0000 F   0  0  0  0  0  0  0  0  0  0  0  0
  1  2  1  0
  2  3  1  0
  2  4  1  0
  4  5  1  0
  5  6  2  0
  6  7  1  0
  7  8  2  0
  8  9  1  0
  8 10  1  0
 10 11  1  0
 11 12  2  0
 12 13  1  0
 13 14  2  0
 14 15  1  0
 15 16  1  1
 16 17  2  0
 16 18  1  0
 15 19  1  0
 19 20  1  0
 11 21  1  0
 21 22  2  0
 22 23  1  0
 23 24  1  0
 23 25  1  0
 23 26  1  0
  9  4  2  0
 20 13  1  0
 22  7  1  0
M  END
>  <compound_id>  (170) 
CO01

>  <name>  (170) 
CouLuc-1-NMe2

>  <structural_class>  (170) 
Coumarin-based luciferins, the CouLuc series

>  <subfamily>  (170) 
coumarin

>  <smiles>  (170) 
CN(C)c1ccc2c(c1)O/C(=C\C1=N[C@@H](C(=O)O)CS1)C=C2C(F)(F)F

>  <inchi>  (170) 
InChI=1S/C17H15F3N2O3S/c1-22(2)9-3-4-11-12(17(18,19)20)6-10(25-14(11)5-9)7-15-21-13(8-26-15)16(23)24/h3-7,13H,8H2,1-2H3,(H,23,24)/b10-7-/t13-/m1/s1

>  <inchikey>  (170) 
KPKSZESZJIQYLZ-PGJNLMOESA-N

>  <molecular_formula>  (170) 
C17H15F3N2O3S

>  <iupac_name>  (170) 
(Z)-2-((7-(Dimethylamino)-4-(trifluoromethyl)-2H-chromen-2-ylidene)methyl)-4,5-dihydrothiazole-4-carboxylic acid

$$$$
CO02
     RDKit          2D

 26 28  0  0  0  0  0  0  0  0999 V2000
   -4.1730   -4.7242    0.0000 N   0  0  0  0  0  0  0  0  0  0  0  0
   -4.0330   -3.2308    0.0000 C   0  0  0  0  0  0  0  0  0  0  0  0
   -5.2563   -2.3628    0.0000 C   0  0  0  0  0  0  0  0  0  0  0  0
   -5.1163   -0.8693    0.0000 C   0  0  0  0  0  0  0  0  0  0  0  0
   -3.7529   -0.2439    0.0000 C   0  0  0  0  0  0  0  0  0  0  0  0
   -2.5295   -1.1119    0.0000 C   0  0  0  0  0  0  0  0  0  0  0  0
   -2.6696   -2.6053    0.0000 C   0  0  0  0  0  0  0  0  0  0  0  0
   -1.1661   -0.4865    0.0000 O   0  0  0  0  0  0  0  0  0  0  0  0
   -1.0261    1.0070    0.0000 C   0  0  0  0  0  0  0  0  0  0  0  0
    0.3373    1.6324    0.0000 C   0  0  0  0  0  0  0  0  0  0  0  0
    1.5606    0.7644    0.0000 C   0  0  0  0  0  0  0  0  0  0  0  0
    2.9240    1.3899    0.0000 C   0  0  0  0  0  0  0  0  0  0  0  0
    4.1474    0.5219    0.0000 C   0  0  0  0  0  0  0  0  0  0  0  0
    5.5686    1.0014    0.0000 N   0  0  0  0  0  0  0  0  0  0  0  0
    6.4639   -0.2022    0.0000 C   0  0  0  0  0  0  0  0  0  0  0  0
    7.9638   -0.1854    0.0000 C   0  0  0  0  0  0  0  0  0  0  0  0
    8.6992    1.1220    0.0000 O   0  0  0  0  0  0  0  0  0  0  0  0
    8.7283   -1.4759    0.0000 O   0  0  0  0  0  0  0  0  0  0  0  0
    5.5959   -1.4255    0.0000 C   0  0  0  0  0  0  0  0  0  0  0  0
    4.1642   -0.9780    0.0000 S   0  0  0  0  0  0  0  0  0  0  0  0
   -2.2494    1.8750    0.0000 C   0  0  0  0  0  0  0  0  0  0  0  0
   -3.6128    1.2496    0.0000 C   0  0  0  0  0  0  0  0  0  0  0  0
   -4.8362    2.1176    0.0000 C   0  0  0  0  0  0  0  0  0  0  0  0
   -6.0595    2.9856    0.0000 F   0  0  0  0  0  0  0  0  0  0  0  0
   -3.9682    3.3409    0.0000 F   0  0  0  0  0  0  0  0  0  0  0  0
   -5.7042    0.8942    0.0000 F   0  0  0  0  0  0  0  0  0  0  0  0
  1  2  1  0
  2  3  1  0
  3  4  2  0
  4  5  1  0
  5  6  2  0
  6  7  1  0
  6  8  1  0
  8  9  1  0
  9 10  2  0
 10 11  1  0
 11 12  2  0
 12 13  1  0
 13 14  2  0
 14 15  1  0
 15 16  1  1
 16 17  2  0
 16 18  1  0
 15 19  1  0
 19 20  1  0
  9 21  1  0
 21 22  2  0
 22 23  1  0
 23 24  1  0
 23 25  1  0
 23 26  1  0
  7  2  2  0
 20 13  1  0
 22  5  1  0
M  END
>  <compound_id>  (171) 
CO02

>  <name>  (171) 
CouLuc-3-NH2

>  <structural_class>  (171) 
Coumarin-based luciferins, the CouLuc series

>  <subfamily>  (171) 
coumarin

>  <smiles>  (171) 
Nc1ccc2c(c1)O/C(=C\C=C\C1=N[C@@H](C(=O)O)CS1)C=C2C(F)(F)F

>  <inchi>  (171) 
InChI=1S/C17H13F3N2O3S/c18-17(19,20)12-7-10(25-14-6-9(21)4-5-11(12)14)2-1-3-15-22-13(8-26-15)16(23)24/h1-7,13H,8,21H2,(H,23,24)/b3-1+,10-2-/t13-/m1/s1

>  <inchikey>  (171) 
IITSFKQIGSVZLB-HQHRYDOASA-N

>  <molecular_formula>  (171) 
C17H13F3N2O3S

>  <iupac_name>  (171) 
(4S)-2-[(1E,3Z)-3-prop-1-en-1-yl]-4,5-dihydro-1,3-thiazole-4-carboxylic acid

$$$$
CO03
     RDKit          2D

 28 30  0  0  0  0  0  0  0  0999 V2000
   -5.6356   -4.4965    0.0000 C   0  0  0  0  0  0  0  0  0  0  0  0
   -4.2240   -3.9891    0.0000 N   0  0  0  0  0  0  0  0  0  0  0  0
   -3.0788   -4.9579    0.0000 C   0  0  0  0  0  0  0  0  0  0  0  0
   -3.9576   -2.5129    0.0000 C   0  0  0  0  0  0  0  0  0  0  0  0
   -5.1028   -1.5441    0.0000 C   0  0  0  0  0  0  0  0  0  0  0  0
   -4.8364   -0.0680    0.0000 C   0  0  0  0  0  0  0  0  0  0  0  0
   -3.4249    0.4394    0.0000 C   0  0  0  0  0  0  0  0  0  0  0  0
   -2.2797   -0.5294    0.0000 C   0  0  0  0  0  0  0  0  0  0  0  0
   -2.5461   -2.0055    0.0000 C   0  0  0  0  0  0  0  0  0  0  0  0
   -0.8681   -0.0220    0.0000 O   0  0  0  0  0  0  0  0  0  0  0  0
   -0.6017    1.4541    0.0000 C   0  0  0  0  0  0  0  0  0  0  0  0
    0.8099    1.9615    0.0000 C   0  0  0  0  0  0  0  0  0  0  0  0
    1.9551    0.9927    0.0000 C   0  0  0  0  0  0  0  0  0  0  0  0
    3.3667    1.5001    0.0000 C   0  0  0  0  0  0  0  0  0  0  0  0
    4.5119    0.5313    0.0000 C   0  0  0  0  0  0  0  0  0  0  0  0
    5.9687    0.8884    0.0000 N   0  0  0  0  0  0  0  0  0  0  0  0
    6.7585   -0.3869    0.0000 C   0  0  0  0  0  0  0  0  0  0  0  0
    8.2544   -0.4975    0.0000 C   0  0  0  0  0  0  0  0  0  0  0  0
    9.0982    0.7427    0.0000 O   0  0  0  0  0  0  0  0  0  0  0  0
    8.9066   -1.8483    0.0000 O   0  0  0  0  0  0  0  0  0  0  0  0
    5.7897   -1.5321    0.0000 C   0  0  0  0  0  0  0  0  0  0  0  0
    4.4012   -0.9646    0.0000 S   0  0  0  0  0  0  0  0  0  0  0  0
   -1.7469    2.4229    0.0000 C   0  0  0  0  0  0  0  0  0  0  0  0
   -3.1585    1.9155    0.0000 C   0  0  0  0  0  0  0  0  0  0  0  0
   -4.3037    2.8843    0.0000 C   0  0  0  0  0  0  0  0  0  0  0  0
   -5.4489    3.8531    0.0000 F   0  0  0  0  0  0  0  0  0  0  0  0
   -3.3349    4.0295    0.0000 F   0  0  0  0  0  0  0  0  0  0  0  0
   -5.2724    1.7391    0.0000 F   0  0  0  0  0  0  0  0  0  0  0  0
  1  2  1  0
  2  3  1  0
  2  4  1  0
  4  5  1  0
  5  6  2  0
  6  7  1  0
  7  8  2  0
  8  9  1  0
  8 10  1  0
 10 11  1  0
 11 12  2  0
 12 13  1  0
 13 14  2  0
 14 15  1  0
 15 16  2  0
 16 17  1  0
 17 18  1  1
 18 19  2  0
 18 20  1  0
 17 21  1  0
 21 22  1  0
 11 23  1  0
 23 24  2  0
 24 25  1  0
 25 26  1  0
 25 27  1  0
 25 28  1  0
  9  4  2  0
 22 15  1  0
 24  7  1  0
M  END
>  <compound_id>  (172) 
CO03

>  <name>  (172) 
CouLuc-3-NMe2

>  <structural_class>  (172) 
Coumarin-based luciferins, the CouLuc series

>  <subfamily>  (172) 
coumarin

>  <smiles>  (172) 
CN(C)c1ccc2c(c1)O/C(=C\C=C\C1=N[C@@H](C(=O)O)CS1)C=C2C(F)(F)F

>  <inchi>  (172) 
InChI=1S/C19H17F3N2O3S/c1-24(2)11-6-7-13-14(19(20,21)22)9-12(27-16(13)8-11)4-3-5-17-23-15(10-28-17)18(25)26/h3-9,15H,10H2,1-2H3,(H,25,26)/b5-3+,12-4-/t15-/m1/s1

>  <inchikey>  (172) 
ICRRDWYEPCKGCC-MFLXEFCOSA-N

>  <molecular_formula>  (172) 
C19H17F3N2O3S

>  <iupac_name>  (172) 
(4S)-2-[(1E,3Z)-3-prop-1-en-1-yl]-4,5-dihydro-1,3-thiazole-4-carboxylic acid

$$$$
CO04
     RDKit          2D

 26 28  0  0  0  0  0  0  0  0999 V2000
   -8.1244    1.6158    0.0000 O   0  0  0  0  0  0  0  0  0  0  0  0
   -6.6264    1.5374    0.0000 C   0  0  0  0  0  0  0  0  0  0  0  0
   -5.8095    2.7954    0.0000 O   0  0  0  0  0  0  0  0  0  0  0  0
   -5.9454    0.2009    0.0000 C   0  0  0  0  0  0  0  0  0  0  0  0
   -6.6263   -1.1356    0.0000 C   0  0  0  0  0  0  0  0  0  0  0  0
   -5.5656   -2.1963    0.0000 S   0  0  0  0  0  0  0  0  0  0  0  0
   -4.2291   -1.5152    0.0000 C   0  0  0  0  0  0  0  0  0  0  0  0
   -2.8926   -2.1961    0.0000 C   0  0  0  0  0  0  0  0  0  0  0  0
   -1.6346   -1.3791    0.0000 C   0  0  0  0  0  0  0  0  0  0  0  0
   -0.2981   -2.0601    0.0000 C   0  0  0  0  0  0  0  0  0  0  0  0
    0.9599   -1.2431    0.0000 C   0  0  0  0  0  0  0  0  0  0  0  0
    2.2964   -1.9240    0.0000 C   0  0  0  0  0  0  0  0  0  0  0  0
    3.5544   -1.1070    0.0000 C   0  0  0  0  0  0  0  0  0  0  0  0
    4.8909   -1.7879    0.0000 C   0  0  0  0  0  0  0  0  0  0  0  0
    6.2275   -2.4688    0.0000 F   0  0  0  0  0  0  0  0  0  0  0  0
    4.2100   -3.1244    0.0000 F   0  0  0  0  0  0  0  0  0  0  0  0
    5.5719   -0.4514    0.0000 F   0  0  0  0  0  0  0  0  0  0  0  0
    3.4758    0.3910    0.0000 C   0  0  0  0  0  0  0  0  0  0  0  0
    4.7338    1.2080    0.0000 C   0  0  0  0  0  0  0  0  0  0  0  0
    4.6552    2.7059    0.0000 C   0  0  0  0  0  0  0  0  0  0  0  0
    3.3187    3.3869    0.0000 C   0  0  0  0  0  0  0  0  0  0  0  0
    3.2401    4.8848    0.0000 O   0  0  0  0  0  0  0  0  0  0  0  0
    2.0607    2.5698    0.0000 C   0  0  0  0  0  0  0  0  0  0  0  0
    2.1393    1.0719    0.0000 C   0  0  0  0  0  0  0  0  0  0  0  0
    0.8813    0.2549    0.0000 O   0  0  0  0  0  0  0  0  0  0  0  0
   -4.4638   -0.0337    0.0000 N   0  0  0  0  0  0  0  0  0  0  0  0
  1  2  2  0
  2  3  1  0
  4  2  1  6
  4  5  1  0
  5  6  1  0
  6  7  1  0
  7  8  1  0
  8  9  2  0
  9 10  1  0
 10 11  2  0
 11 12  1  0
 12 13  2  0
 13 14  1  0
 14 15  1  0
 14 16  1  0
 14 17  1  0
 13 18  1  0
 18 19  1  0
 19 20  2  0
 20 21  1  0
 21 22  1  0
 21 23  2  0
 23 24  1  0
 24 25  1  0
  7 26  2  0
 26  4  1  0
 25 11  1  0
 24 18  2  0
M  END
>  <compound_id>  (173) 
CO04

>  <name>  (173) 
CouLuc-3-OH

>  <structural_class>  (173) 
Coumarin-based luciferins, the CouLuc series

>  <subfamily>  (173) 
coumarin

>  <smiles>  (173) 
O=C(O)[C@H]1CSC(/C=C/C=C2/C=C(C(F)(F)F)c3ccc(O)cc3O2)=N1

>  <inchi>  (173) 
InChI=1S/C17H12F3NO4S/c18-17(19,20)12-7-10(25-14-6-9(22)4-5-11(12)14)2-1-3-15-21-13(8-26-15)16(23)24/h1-7,13,22H,8H2,(H,23,24)/b3-1+,10-2-/t13-/m1/s1

>  <inchikey>  (173) 
KDASQKOQZHONRY-HQHRYDOASA-N

>  <molecular_formula>  (173) 
C17H12F3NO4S

>  <iupac_name>  (173) 
(4S)-2-[(1E,3Z)-3-prop-1-en-1-yl]-4,5-dihydro-1,3-thiazole-4-carboxylic acid

$$$$
MI01
     RDKit          2D

 14 15  0  0  0  0  0  0  0  0999 V2000
   -4.9034   -0.3863    0.0000 O   0  0  0  0  0  0  0  0  0  0  0  0
   -3.6840    0.4872    0.0000 C   0  0  0  0  0  0  0  0  0  0  0  0
   -3.8308    1.9800    0.0000 O   0  0  0  0  0  0  0  0  0  0  0  0
   -2.3178   -0.1320    0.0000 C   0  0  0  0  0  0  0  0  0  0  0  0
   -2.0158   -1.6013    0.0000 C   0  0  0  0  0  0  0  0  0  0  0  0
   -0.5251   -1.7681    0.0000 S   0  0  0  0  0  0  0  0  0  0  0  0
    0.0942   -0.4019    0.0000 C   0  0  0  0  0  0  0  0  0  0  0  0
    1.5635   -0.0999    0.0000 C   0  0  0  0  0  0  0  0  0  0  0  0
    2.5597   -1.2213    0.0000 C   0  0  0  0  0  0  0  0  0  0  0  0
    4.0290   -0.9192    0.0000 C   0  0  0  0  0  0  0  0  0  0  0  0
    4.5020    0.5042    0.0000 N   0  0  0  0  0  0  0  0  0  0  0  0
    3.5058    1.6256    0.0000 C   0  0  0  0  0  0  0  0  0  0  0  0
    2.0365    1.3236    0.0000 C   0  0  0  0  0  0  0  0  0  0  0  0
   -1.0138    0.6092    0.0000 N   0  0  0  0  0  0  0  0  0  0  0  0
  1  2  2  0
  2  3  1  0
  2  4  1  0
  4  5  1  0
  5  6  1  0
  6  7  1  0
  7  8  1  0
  8  9  1  0
  9 10  2  0
 10 11  1  0
 11 12  2  0
 12 13  1  0
  7 14  2  0
 14  4  1  0
 13  8  2  0
M  END
>  <compound_id>  (174) 
MI01

>  <name>  (174) 
2-(4'-Pyridyl)-thiazoline-4-carboxylic acid

>  <structural_class>  (174) 
Minimal aryl-thiazoline luciferin analogues

>  <subfamily>  (174) 
pyridine

>  <smiles>  (174) 
O=C(O)C1CSC(c2ccncc2)=N1

>  <inchi>  (174) 
InChI=1S/C9H8N2O2S/c12-9(13)7-5-14-8(11-7)6-1-3-10-4-2-6/h1-4,7H,5H2,(H,12,13)

>  <inchikey>  (174) 
RXOSZQRLNYGARB-UHFFFAOYSA-N

>  <molecular_formula>  (174) 
C9H8N2O2S

>  <iupac_name>  (174) 
2-(pyridin-4-yl)-4,5-dihydro-1,3-thiazole-4-carboxylic acid

>  <stereochemistry>  (174) 
racemate

$$$$
MI02
     RDKit          2D

 15 16  0  0  0  0  0  0  0  0999 V2000
   -5.3129   -0.2701    0.0000 O   0  0  0  0  0  0  0  0  0  0  0  0
   -4.0661    0.5640    0.0000 C   0  0  0  0  0  0  0  0  0  0  0  0
   -4.1650    2.0607    0.0000 O   0  0  0  0  0  0  0  0  0  0  0  0
   -2.7205   -0.0987    0.0000 C   0  0  0  0  0  0  0  0  0  0  0  0
   -2.4656   -1.5769    0.0000 C   0  0  0  0  0  0  0  0  0  0  0  0
   -0.9810   -1.7913    0.0000 S   0  0  0  0  0  0  0  0  0  0  0  0
   -0.3183   -0.4457    0.0000 C   0  0  0  0  0  0  0  0  0  0  0  0
    1.1599   -0.1908    0.0000 C   0  0  0  0  0  0  0  0  0  0  0  0
    2.1197   -1.3436    0.0000 C   0  0  0  0  0  0  0  0  0  0  0  0
    3.5978   -1.0887    0.0000 C   0  0  0  0  0  0  0  0  0  0  0  0
    4.1163    0.3188    0.0000 C   0  0  0  0  0  0  0  0  0  0  0  0
    5.5945    0.5737    0.0000 O   0  0  0  0  0  0  0  0  0  0  0  0
    3.1565    1.4716    0.0000 C   0  0  0  0  0  0  0  0  0  0  0  0
    1.6783    1.2167    0.0000 C   0  0  0  0  0  0  0  0  0  0  0  0
   -1.3934    0.6004    0.0000 N   0  0  0  0  0  0  0  0  0  0  0  0
  1  2  2  0
  2  3  1  0
  4  2  1  6
  4  5  1  0
  5  6  1  0
  6  7  1  0
  7  8  1  0
  8  9  1  0
  9 10  2  0
 10 11  1  0
 11 12  1  0
 11 13  2  0
 13 14  1  0
  7 15  2  0
 15  4  1  0
 14  8  2  0
M  END
>  <compound_id>  (175) 
MI02

>  <name>  (175) 
Iwano 2013 analogue 1a

>  <structural_class>  (175) 
Minimal aryl-thiazoline luciferin analogues

>  <subfamily>  (175) 
benzene

>  <smiles>  (175) 
O=C(O)[C@H]1CSC(c2ccc(O)cc2)=N1

>  <inchi>  (175) 
InChI=1S/C10H9NO3S/c12-7-3-1-6(2-4-7)9-11-8(5-15-9)10(13)14/h1-4,8,12H,5H2,(H,13,14)/t8-/m1/s1

>  <inchikey>  (175) 
PTRSPGLUBRKDQT-MRVPVSSYSA-N

>  <molecular_formula>  (175) 
C10H9NO3S

>  <iupac_name>  (175) 
(S)-2-(4-Hydroxyphenyl)-4,5-dihydrothiazole-4-carboxylic acid

$$$$
MI03
     RDKit          2D

 17 18  0  0  0  0  0  0  0  0999 V2000
    5.4310   -1.7095    0.0000 C   0  0  0  0  0  0  0  0  0  0  0  0
    4.8636   -0.3210    0.0000 N   0  0  0  0  0  0  0  0  0  0  0  0
    5.7824    0.8647    0.0000 C   0  0  0  0  0  0  0  0  0  0  0  0
    3.3773   -0.1181    0.0000 C   0  0  0  0  0  0  0  0  0  0  0  0
    2.4585   -1.3037    0.0000 C   0  0  0  0  0  0  0  0  0  0  0  0
    0.9723   -1.1009    0.0000 C   0  0  0  0  0  0  0  0  0  0  0  0
    0.4049    0.2877    0.0000 C   0  0  0  0  0  0  0  0  0  0  0  0
   -1.0813    0.4906    0.0000 C   0  0  0  0  0  0  0  0  0  0  0  0
   -2.1190   -0.5926    0.0000 N   0  0  0  0  0  0  0  0  0  0  0  0
   -3.4698    0.0597    0.0000 C   0  0  0  0  0  0  0  0  0  0  0  0
   -4.7914   -0.6498    0.0000 C   0  0  0  0  0  0  0  0  0  0  0  0
   -4.8378   -2.1491    0.0000 O   0  0  0  0  0  0  0  0  0  0  0  0
   -6.0666    0.1401    0.0000 O   0  0  0  0  0  0  0  0  0  0  0  0
   -3.2669    1.5459    0.0000 C   0  0  0  0  0  0  0  0  0  0  0  0
   -1.7907    1.8122    0.0000 S   0  0  0  0  0  0  0  0  0  0  0  0
    1.3237    1.4733    0.0000 C   0  0  0  0  0  0  0  0  0  0  0  0
    2.8099    1.2705    0.0000 C   0  0  0  0  0  0  0  0  0  0  0  0
  1  2  1  0
  2  3  1  0
  2  4  1  0
  4  5  1  0
  5  6  2  0
  6  7  1  0
  7  8  1  0
  8  9  2  0
  9 10  1  0
 10 11  1  1
 11 12  2  0
 11 13  1  0
 10 14  1  0
 14 15  1  0
  7 16  2  0
 16 17  1  0
 17  4  2  0
 15  8  1  0
M  END
>  <compound_id>  (176) 
MI03

>  <name>  (176) 
Iwano 2013 analogue 1b

>  <structural_class>  (176) 
Minimal aryl-thiazoline luciferin analogues

>  <subfamily>  (176) 
benzene

>  <smiles>  (176) 
CN(C)c1ccc(C2=N[C@@H](C(=O)O)CS2)cc1

>  <inchi>  (176) 
InChI=1S/C12H14N2O2S/c1-14(2)9-5-3-8(4-6-9)11-13-10(7-17-11)12(15)16/h3-6,10H,7H2,1-2H3,(H,15,16)/t10-/m1/s1

>  <inchikey>  (176) 
KYMSNXXWGNOUCJ-SNVBAGLBSA-N

>  <molecular_formula>  (176) 
C12H14N2O2S

>  <iupac_name>  (176) 
(S)-2-(4-(Dimethylamino)phenyl)-4,5-dihydrothiazole-4-carboxylic acid

$$$$
AP01
     RDKit          2D

 41 45  0  0  0  0  0  0  0  0999 V2000
   12.6483   -3.9367    0.0000 C   0  0  0  0  0  0  0  0  0  0  0  0
   12.7672   -2.4414    0.0000 N   0  0  0  0  0  0  0  0  0  0  0  0
   14.1216   -1.7967    0.0000 C   0  0  0  0  0  0  0  0  0  0  0  0
   11.5316   -1.5909    0.0000 C   0  0  0  0  0  0  0  0  0  0  0  0
   10.1773   -2.2356    0.0000 C   0  0  0  0  0  0  0  0  0  0  0  0
    8.9417   -1.3850    0.0000 C   0  0  0  0  0  0  0  0  0  0  0  0
    9.0606    0.1102    0.0000 C   0  0  0  0  0  0  0  0  0  0  0  0
    7.8251    0.9608    0.0000 C   0  0  0  0  0  0  0  0  0  0  0  0
    6.4707    0.3161    0.0000 C   0  0  0  0  0  0  0  0  0  0  0  0
    5.2351    1.1667    0.0000 C   0  0  0  0  0  0  0  0  0  0  0  0
    3.8208    0.6670    0.0000 N   0  0  0  0  0  0  0  0  0  0  0  0
    2.9086    1.8578    0.0000 C   0  0  0  0  0  0  0  0  0  0  0  0
    1.4091    1.8197    0.0000 C   0  0  0  0  0  0  0  0  0  0  0  0
    0.6263    3.0992    0.0000 O   0  0  0  0  0  0  0  0  0  0  0  0
    0.6923    0.5020    0.0000 O   0  0  0  0  0  0  0  0  0  0  0  0
   -0.8072    0.4639    0.0000 P   0  0  0  0  0  0  0  0  0  0  0  0
   -0.8453    1.9634    0.0000 O   0  0  0  0  0  0  0  0  0  0  0  0
   -0.7691   -1.0356    0.0000 O   0  0  0  0  0  0  0  0  0  0  0  0
   -2.3067    0.4258    0.0000 O   0  0  0  0  0  0  0  0  0  0  0  0
   -3.0895    1.7053    0.0000 C   0  0  0  0  0  0  0  0  0  0  0  0
   -4.5890    1.6672    0.0000 C   0  0  0  0  0  0  0  0  0  0  0  0
   -5.4396    0.4317    0.0000 O   0  0  0  0  0  0  0  0  0  0  0  0
   -6.8775    0.8588    0.0000 C   0  0  0  0  0  0  0  0  0  0  0  0
   -8.0682   -0.0534    0.0000 N   0  0  0  0  0  0  0  0  0  0  0  0
   -9.5061    0.3738    0.0000 C   0  0  0  0  0  0  0  0  0  0  0  0
  -10.3567   -0.8618    0.0000 N   0  0  0  0  0  0  0  0  0  0  0  0
   -9.4445   -2.0525    0.0000 C   0  0  0  0  0  0  0  0  0  0  0  0
   -9.7189   -3.5272    0.0000 C   0  0  0  0  0  0  0  0  0  0  0  0
  -11.1333   -4.0268    0.0000 N   0  0  0  0  0  0  0  0  0  0  0  0
   -8.5791   -4.5022    0.0000 N   0  0  0  0  0  0  0  0  0  0  0  0
   -7.1647   -4.0026    0.0000 C   0  0  0  0  0  0  0  0  0  0  0  0
   -6.8902   -2.5279    0.0000 N   0  0  0  0  0  0  0  0  0  0  0  0
   -8.0301   -1.5529    0.0000 C   0  0  0  0  0  0  0  0  0  0  0  0
   -6.9156    2.3584    0.0000 C   0  0  0  0  0  0  0  0  0  0  0  0
   -8.1511    3.2089    0.0000 O   0  0  0  0  0  0  0  0  0  0  0  0
   -5.5012    2.8580    0.0000 C   0  0  0  0  0  0  0  0  0  0  0  0
   -5.0741    4.2959    0.0000 O   0  0  0  0  0  0  0  0  0  0  0  0
    3.7591    3.0933    0.0000 C   0  0  0  0  0  0  0  0  0  0  0  0
    5.1970    2.6662    0.0000 S   0  0  0  0  0  0  0  0  0  0  0  0
   10.4150    0.7550    0.0000 C   0  0  0  0  0  0  0  0  0  0  0  0
   11.6505   -0.0956    0.0000 C   0  0  0  0  0  0  0  0  0  0  0  0
  1  2  1  0
  2  3  1  0
  2  4  1  0
  4  5  1  0
  5  6  2  0
  6  7  1  0
  7  8  1  0
  8  9  2  0
  9 10  1  0
 10 11  2  0
 11 12  1  0
 12 13  1  1
 13 14  2  0
 13 15  1  0
 15 16  1  0
 16 17  2  0
 16 18  1  0
 16 19  1  0
 19 20  1  0
 21 20  1  1
 21 22  1  0
 22 23  1  0
 23 24  1  1
 24 25  1  0
 25 26  2  0
 26 27  1  0
 27 28  2  0
 28 29  1  0
 28 30  1  0
 30 31  2  0
 31 32  1  0
 32 33  2  0
 23 34  1  0
 34 35  1  6
 34 36  1  0
 36 37  1  6
 12 38  1  0
 38 39  1  0
  7 40  2  0
 40 41  1  0
 41  4  2  0
 39 10  1  0
 36 21  1  0
 33 24  1  0
 33 27  1  0
M  END
>  <compound_id>  (177) 
AP01

>  <name>  (177) 
2b-AMP (adenylate of DmaVLuc / Iwano 2013 analogue 2b)

>  <structural_class>  (177) 
Mechanistic probes and non-substrate analogues

>  <subfamily>  (177) 
benzene

>  <smiles>  (177) 
CN(C)c1ccc(/C=C/C2=N[C@@H](C(=O)OP(=O)(O)OC[C@H]3O[C@@H](n4cnc5c(N)ncnc54)[C@H](O)[C@@H]3O)CS2)cc1

>  <inchi>  (177) 
InChI=1S/C24H28N7O8PS/c1-30(2)14-6-3-13(4-7-14)5-8-17-29-15(10-41-17)24(34)39-40(35,36)37-9-16-19(32)20(33)23(38-16)31-12-28-18-21(25)26-11-27-22(18)31/h3-8,11-12,15-16,19-20,23,32-33H,9-10H2,1-2H3,(H,35,36)(H2,25,26,27)/b8-5+/t15-,16-,19-,20-,23-/m1/s1

>  <inchikey>  (177) 
DYZMHFCCSNDKLK-KICLDUAVSA-N

>  <molecular_formula>  (177) 
C24H28N7O8PS

>  <iupac_name>  (177) 
5'-O-[(4S,E)-2--4,5-dihydro-1,3-thiazole-4-carbonyl] adenosine 5'-phosphate (the mixed carboxylic-phosphoric anhydride of Iwano 2013 analogue 2b with adenosine 5'-monophosphate)

>  <stereochemistry>  (177) 
D_enantiomer

$$$$
AP02
     RDKit          2D

 42 47  0  0  0  0  0  0  0  0999 V2000
   12.7257   -2.2453    0.0000 N   0  0  0  0  0  0  0  0  0  0  0  0
   11.2263   -2.2027    0.0000 C   0  0  0  0  0  0  0  0  0  0  0  0
   10.4397   -3.4799    0.0000 N   0  0  0  0  0  0  0  0  0  0  0  0
    8.9403   -3.4373    0.0000 C   0  0  0  0  0  0  0  0  0  0  0  0
    8.2275   -2.1175    0.0000 N   0  0  0  0  0  0  0  0  0  0  0  0
    9.0141   -0.8403    0.0000 C   0  0  0  0  0  0  0  0  0  0  0  0
   10.5135   -0.8829    0.0000 C   0  0  0  0  0  0  0  0  0  0  0  0
   11.0174    0.5299    0.0000 N   0  0  0  0  0  0  0  0  0  0  0  0
    9.8294    1.4457    0.0000 C   0  0  0  0  0  0  0  0  0  0  0  0
    8.5913    0.5989    0.0000 N   0  0  0  0  0  0  0  0  0  0  0  0
    7.1785    1.1028    0.0000 C   0  0  0  0  0  0  0  0  0  0  0  0
    5.9404    0.2559    0.0000 O   0  0  0  0  0  0  0  0  0  0  0  0
    4.7524    1.1717    0.0000 C   0  0  0  0  0  0  0  0  0  0  0  0
    3.3132    0.7489    0.0000 C   0  0  0  0  0  0  0  0  0  0  0  0
    2.2275    1.7839    0.0000 O   0  0  0  0  0  0  0  0  0  0  0  0
    0.7883    1.3611    0.0000 S   0  0  0  0  0  0  0  0  0  0  0  0
    1.2111   -0.0781    0.0000 O   0  0  0  0  0  0  0  0  0  0  0  0
    0.3655    2.8002    0.0000 O   0  0  0  0  0  0  0  0  0  0  0  0
   -0.6509    0.9383    0.0000 N   0  0  0  0  0  0  0  0  0  0  0  0
   -1.0043   -0.5195    0.0000 C   0  0  0  0  0  0  0  0  0  0  0  0
    0.0815   -1.5545    0.0000 O   0  0  0  0  0  0  0  0  0  0  0  0
   -2.4435   -0.9423    0.0000 C   0  0  0  0  0  0  0  0  0  0  0  0
   -2.9473   -2.3552    0.0000 C   0  0  0  0  0  0  0  0  0  0  0  0
   -4.4467   -2.3125    0.0000 S   0  0  0  0  0  0  0  0  0  0  0  0
   -4.8695   -0.8734    0.0000 C   0  0  0  0  0  0  0  0  0  0  0  0
   -6.2824   -0.3695    0.0000 C   0  0  0  0  0  0  0  0  0  0  0  0
   -7.4252   -1.3411    0.0000 C   0  0  0  0  0  0  0  0  0  0  0  0
   -8.8380   -0.8372    0.0000 C   0  0  0  0  0  0  0  0  0  0  0  0
   -9.2608    0.6019    0.0000 N   0  0  0  0  0  0  0  0  0  0  0  0
  -10.7602    0.6446    0.0000 C   0  0  0  0  0  0  0  0  0  0  0  0
  -11.7318    1.7873    0.0000 C   0  0  0  0  0  0  0  0  0  0  0  0
  -13.2073    1.5173    0.0000 C   0  0  0  0  0  0  0  0  0  0  0  0
  -13.7112    0.1044    0.0000 C   0  0  0  0  0  0  0  0  0  0  0  0
  -15.1867   -0.1656    0.0000 O   0  0  0  0  0  0  0  0  0  0  0  0
  -12.7396   -1.0383    0.0000 C   0  0  0  0  0  0  0  0  0  0  0  0
  -11.2641   -0.7683    0.0000 C   0  0  0  0  0  0  0  0  0  0  0  0
  -10.0761   -1.6841    0.0000 S   0  0  0  0  0  0  0  0  0  0  0  0
   -3.6315   -0.0265    0.0000 N   0  0  0  0  0  0  0  0  0  0  0  0
    5.2563    2.5846    0.0000 C   0  0  0  0  0  0  0  0  0  0  0  0
    4.4094    3.8227    0.0000 O   0  0  0  0  0  0  0  0  0  0  0  0
    6.7557    2.5419    0.0000 C   0  0  0  0  0  0  0  0  0  0  0  0
    7.6715    3.7299    0.0000 O   0  0  0  0  0  0  0  0  0  0  0  0
  1  2  1  0
  2  3  1  0
  3  4  2  0
  4  5  1  0
  5  6  2  0
  6  7  1  0
  7  8  1  0
  8  9  2  0
  9 10  1  0
 11 10  1  6
 11 12  1  0
 12 13  1  0
 13 14  1  6
 14 15  1  0
 15 16  1  0
 16 17  2  0
 16 18  2  0
 16 19  1  0
 19 20  1  0
 20 21  2  0
 20 22  1  0
 22 23  2  0
 23 24  1  0
 24 25  1  0
 25 26  1  0
 26 27  2  0
 27 28  1  0
 28 29  2  0
 29 30  1  0
 30 31  1  0
 31 32  2  0
 32 33  1  0
 33 34  1  0
 33 35  2  0
 35 36  1  0
 36 37  1  0
 25 38  2  0
 13 39  1  0
 39 40  1  1
 39 41  1  0
 41 42  1  1
  7  2  2  0
 41 11  1  0
 10  6  1  0
 38 22  1  0
 37 28  1  0
 36 30  2  0
M  END
>  <compound_id>  (178) 
AP02

>  <name>  (178) 
5'-O-[(N-dehydroinfraluciferyl)-sulfamoyl]adenosine

>  <structural_class>  (178) 
Mechanistic probes and non-substrate analogues

>  <subfamily>  (178) 
benzothiazole

>  <smiles>  (178) 
Nc1ncnc2c1ncn2[C@@H]1O[C@H](COS(=O)(=O)NC(=O)c2csc(/C=C/c3nc4ccc(O)cc4s3)n2)[C@@H](O)[C@H]1O

>  <inchi>  (178) 
InChI=1S/C23H20N8O8S3/c24-20-17-21(26-8-25-20)31(9-27-17)23-19(34)18(33)13(39-23)6-38-42(36,37)30-22(35)12-7-40-15(29-12)3-4-16-28-11-2-1-10(32)5-14(11)41-16/h1-5,7-9,13,18-19,23,32-34H,6H2,(H,30,35)(H2,24,25,26)/b4-3+/t13-,18-,19-,23-/m1/s1

>  <inchikey>  (178) 
JXXQGJFRVFVJAK-AWGXURSZSA-N

>  <molecular_formula>  (178) 
C23H20N8O8S3

$$$$
AP03
     RDKit          2D

 40 45  0  0  0  0  0  0  0  0999 V2000
  -11.8093    2.0614    0.0000 N   0  0  0  0  0  0  0  0  0  0  0  0
  -10.3093    2.0626    0.0000 C   0  0  0  0  0  0  0  0  0  0  0  0
   -9.5603    3.3622    0.0000 N   0  0  0  0  0  0  0  0  0  0  0  0
   -8.0603    3.3633    0.0000 C   0  0  0  0  0  0  0  0  0  0  0  0
   -7.3093    2.0649    0.0000 N   0  0  0  0  0  0  0  0  0  0  0  0
   -8.0583    0.7652    0.0000 C   0  0  0  0  0  0  0  0  0  0  0  0
   -9.5583    0.7641    0.0000 C   0  0  0  0  0  0  0  0  0  0  0  0
  -10.0207   -0.6628    0.0000 N   0  0  0  0  0  0  0  0  0  0  0  0
   -8.8065   -1.5436    0.0000 C   0  0  0  0  0  0  0  0  0  0  0  0
   -7.5937   -0.6610    0.0000 N   0  0  0  0  0  0  0  0  0  0  0  0
   -6.1668   -1.1234    0.0000 C   0  0  0  0  0  0  0  0  0  0  0  0
   -4.9539   -0.2408    0.0000 O   0  0  0  0  0  0  0  0  0  0  0  0
   -3.7397   -1.1216    0.0000 C   0  0  0  0  0  0  0  0  0  0  0  0
   -2.3135   -0.6570    0.0000 C   0  0  0  0  0  0  0  0  0  0  0  0
   -1.1980   -1.6598    0.0000 O   0  0  0  0  0  0  0  0  0  0  0  0
    0.2282   -1.1952    0.0000 P   0  0  0  0  0  0  0  0  0  0  0  0
   -0.2364    0.2310    0.0000 O   0  0  0  0  0  0  0  0  0  0  0  0
    0.6928   -2.6215    0.0000 O   0  0  0  0  0  0  0  0  0  0  0  0
    1.6545   -0.7306    0.0000 O   0  0  0  0  0  0  0  0  0  0  0  0
    1.9652    0.7368    0.0000 C   0  0  0  0  0  0  0  0  0  0  0  0
    0.8497    1.7397    0.0000 O   0  0  0  0  0  0  0  0  0  0  0  0
    3.3915    1.2015    0.0000 C   0  0  0  0  0  0  0  0  0  0  0  0
    3.8539    2.6284    0.0000 C   0  0  0  0  0  0  0  0  0  0  0  0
    5.3539    2.6295    0.0000 C   0  0  0  0  0  0  0  0  0  0  0  0
    5.8185    1.2033    0.0000 C   0  0  0  0  0  0  0  0  0  0  0  0
    7.2454    0.7409    0.0000 C   0  0  0  0  0  0  0  0  0  0  0  0
    7.7101   -0.6854    0.0000 N   0  0  0  0  0  0  0  0  0  0  0  0
    9.2101   -0.6842    0.0000 C   0  0  0  0  0  0  0  0  0  0  0  0
   10.2146   -1.7982    0.0000 C   0  0  0  0  0  0  0  0  0  0  0  0
   11.6816   -1.4852    0.0000 C   0  0  0  0  0  0  0  0  0  0  0  0
   12.1440   -0.0583    0.0000 C   0  0  0  0  0  0  0  0  0  0  0  0
   13.6110    0.2547    0.0000 O   0  0  0  0  0  0  0  0  0  0  0  0
   11.1395    1.0557    0.0000 C   0  0  0  0  0  0  0  0  0  0  0  0
    9.6725    0.7427    0.0000 C   0  0  0  0  0  0  0  0  0  0  0  0
    8.4583    1.6235    0.0000 S   0  0  0  0  0  0  0  0  0  0  0  0
    4.6057    0.3207    0.0000 N   0  0  0  0  0  0  0  0  0  0  0  0
   -4.2021   -2.5485    0.0000 C   0  0  0  0  0  0  0  0  0  0  0  0
   -3.3195   -3.7614    0.0000 O   0  0  0  0  0  0  0  0  0  0  0  0
   -5.7021   -2.5497    0.0000 C   0  0  0  0  0  0  0  0  0  0  0  0
   -6.5829   -3.7639    0.0000 O   0  0  0  0  0  0  0  0  0  0  0  0
  1  2  1  0
  2  3  1  0
  3  4  2  0
  4  5  1  0
  5  6  2  0
  6  7  1  0
  7  8  1  0
  8  9  2  0
  9 10  1  0
 11 10  1  6
 11 12  1  0
 12 13  1  0
 13 14  1  6
 14 15  1  0
 15 16  1  0
 16 17  2  0
 16 18  1  0
 16 19  1  0
 19 20  1  0
 20 21  2  0
 22 20  1  1
 22 23  1  0
 23 24  1  0
 24 25  1  0
 25 26  1  0
 26 27  2  0
 27 28  1  0
 28 29  1  0
 29 30  2  0
 30 31  1  0
 31 32  1  0
 31 33  2  0
 33 34  1  0
 34 35  1  0
 25 36  2  0
 13 37  1  0
 37 38  1  1
 37 39  1  0
 39 40  1  1
  7  2  2  0
 39 11  1  0
 10  6  1  0
 36 22  1  0
 35 26  1  0
 34 28  2  0
M  END
>  <compound_id>  (179) 
AP03

>  <name>  (179) 
AMP-carboluciferin

>  <structural_class>  (179) 
Mechanistic probes and non-substrate analogues

>  <subfamily>  (179) 
benzothiazole

>  <smiles>  (179) 
Nc1ncnc2c1ncn2[C@@H]1O[C@H](COP(=O)(O)OC(=O)[C@H]2CCC(c3nc4ccc(O)cc4s3)=N2)[C@@H](O)[C@H]1O

>  <inchi>  (179) 
InChI=1S/C22H22N7O9PS/c23-18-15-19(25-7-24-18)29(8-26-15)21-17(32)16(31)13(37-21)6-36-39(34,35)38-22(33)12-4-3-11(27-12)20-28-10-2-1-9(30)5-14(10)40-20/h1-2,5,7-8,12-13,16-17,21,30-32H,3-4,6H2,(H,34,35)(H2,23,24,25)/t12-,13-,16-,17-,21-/m1/s1

>  <inchikey>  (179) 
GTAHZLHXBDGPKB-GTFSFZJOSA-N

>  <molecular_formula>  (179) 
C22H22N7O9PS

>  <iupac_name>  (179) 
5'-O-adenosine (carboluciferyl adenylate)

>  <stereochemistry>  (179) 
D_enantiomer

$$$$
AP04
     RDKit          2D

 40 45  0  0  0  0  0  0  0  0999 V2000
  -11.8093    2.0614    0.0000 N   0  0  0  0  0  0  0  0  0  0  0  0
  -10.3093    2.0626    0.0000 C   0  0  0  0  0  0  0  0  0  0  0  0
   -9.5603    3.3622    0.0000 N   0  0  0  0  0  0  0  0  0  0  0  0
   -8.0603    3.3633    0.0000 C   0  0  0  0  0  0  0  0  0  0  0  0
   -7.3093    2.0649    0.0000 N   0  0  0  0  0  0  0  0  0  0  0  0
   -8.0583    0.7652    0.0000 C   0  0  0  0  0  0  0  0  0  0  0  0
   -9.5583    0.7641    0.0000 C   0  0  0  0  0  0  0  0  0  0  0  0
  -10.0207   -0.6628    0.0000 N   0  0  0  0  0  0  0  0  0  0  0  0
   -8.8065   -1.5436    0.0000 C   0  0  0  0  0  0  0  0  0  0  0  0
   -7.5937   -0.6610    0.0000 N   0  0  0  0  0  0  0  0  0  0  0  0
   -6.1668   -1.1234    0.0000 C   0  0  0  0  0  0  0  0  0  0  0  0
   -4.9539   -0.2408    0.0000 O   0  0  0  0  0  0  0  0  0  0  0  0
   -3.7397   -1.1216    0.0000 C   0  0  0  0  0  0  0  0  0  0  0  0
   -2.3135   -0.6570    0.0000 C   0  0  0  0  0  0  0  0  0  0  0  0
   -1.1980   -1.6598    0.0000 O   0  0  0  0  0  0  0  0  0  0  0  0
    0.2282   -1.1952    0.0000 P   0  0  0  0  0  0  0  0  0  0  0  0
   -0.2364    0.2310    0.0000 O   0  0  0  0  0  0  0  0  0  0  0  0
    0.6928   -2.6215    0.0000 O   0  0  0  0  0  0  0  0  0  0  0  0
    1.6545   -0.7306    0.0000 O   0  0  0  0  0  0  0  0  0  0  0  0
    1.9652    0.7368    0.0000 C   0  0  0  0  0  0  0  0  0  0  0  0
    0.8497    1.7397    0.0000 O   0  0  0  0  0  0  0  0  0  0  0  0
    3.3915    1.2015    0.0000 C   0  0  0  0  0  0  0  0  0  0  0  0
    3.8539    2.6284    0.0000 C   0  0  0  0  0  0  0  0  0  0  0  0
    5.3539    2.6295    0.0000 S   0  0  0  0  0  0  0  0  0  0  0  0
    5.8185    1.2033    0.0000 C   0  0  0  0  0  0  0  0  0  0  0  0
    7.2454    0.7409    0.0000 C   0  0  0  0  0  0  0  0  0  0  0  0
    7.7101   -0.6854    0.0000 N   0  0  0  0  0  0  0  0  0  0  0  0
    9.2101   -0.6842    0.0000 C   0  0  0  0  0  0  0  0  0  0  0  0
   10.2146   -1.7982    0.0000 C   0  0  0  0  0  0  0  0  0  0  0  0
   11.6816   -1.4852    0.0000 C   0  0  0  0  0  0  0  0  0  0  0  0
   12.1440   -0.0583    0.0000 C   0  0  0  0  0  0  0  0  0  0  0  0
   13.6110    0.2547    0.0000 O   0  0  0  0  0  0  0  0  0  0  0  0
   11.1395    1.0557    0.0000 C   0  0  0  0  0  0  0  0  0  0  0  0
    9.6725    0.7427    0.0000 C   0  0  0  0  0  0  0  0  0  0  0  0
    8.4583    1.6235    0.0000 S   0  0  0  0  0  0  0  0  0  0  0  0
    4.6057    0.3207    0.0000 N   0  0  0  0  0  0  0  0  0  0  0  0
   -4.2021   -2.5485    0.0000 C   0  0  0  0  0  0  0  0  0  0  0  0
   -3.3195   -3.7614    0.0000 O   0  0  0  0  0  0  0  0  0  0  0  0
   -5.7021   -2.5497    0.0000 C   0  0  0  0  0  0  0  0  0  0  0  0
   -6.5829   -3.7639    0.0000 O   0  0  0  0  0  0  0  0  0  0  0  0
  1  2  1  0
  2  3  1  0
  3  4  2  0
  4  5  1  0
  5  6  2  0
  6  7  1  0
  7  8  1  0
  8  9  2  0
  9 10  1  0
 11 10  1  6
 11 12  1  0
 12 13  1  0
 13 14  1  6
 14 15  1  0
 15 16  1  0
 16 17  2  0
 16 18  1  0
 16 19  1  0
 19 20  1  0
 20 21  2  0
 22 20  1  1
 22 23  1  0
 23 24  1  0
 24 25  1  0
 25 26  1  0
 26 27  2  0
 27 28  1  0
 28 29  1  0
 29 30  2  0
 30 31  1  0
 31 32  1  0
 31 33  2  0
 33 34  1  0
 34 35  1  0
 25 36  2  0
 13 37  1  0
 37 38  1  1
 37 39  1  0
 39 40  1  1
  7  2  2  0
 39 11  1  0
 10  6  1  0
 36 22  1  0
 35 26  1  0
 34 28  2  0
M  END
>  <compound_id>  (180) 
AP04

>  <name>  (180) 
D-Luciferyl adenylate

>  <structural_class>  (180) 
Mechanistic probes and non-substrate analogues

>  <subfamily>  (180) 
benzothiazole

>  <smiles>  (180) 
Nc1ncnc2c1ncn2[C@@H]1O[C@H](COP(=O)(O)OC(=O)[C@H]2CSC(c3nc4ccc(O)cc4s3)=N2)[C@@H](O)[C@H]1O

>  <inchi>  (180) 
InChI=1S/C21H20N7O9PS2/c22-16-13-17(24-6-23-16)28(7-25-13)20-15(31)14(30)11(36-20)4-35-38(33,34)37-21(32)10-5-39-18(27-10)19-26-9-2-1-8(29)3-12(9)40-19/h1-3,6-7,10-11,14-15,20,29-31H,4-5H2,(H,33,34)(H2,22,23,24)/t10-,11-,14-,15-,20-/m1/s1

>  <inchikey>  (180) 
DVLIEEOCYVGZDS-RIWZETFMSA-N

>  <molecular_formula>  (180) 
C21H20N7O9PS2

>  <iupac_name>  (180) 
5'-O-adenosine (D-luciferyl adenylate)

>  <stereochemistry>  (180) 
D_enantiomer

$$$$
CX18
     RDKit          2D

 19 21  0  0  0  0  0  0  0  0999 V2000
   -6.6074    0.5000    0.0000 N   0  0  0  0  0  0  0  0  0  0  0  0
   -5.1075    0.5192    0.0000 C   0  0  0  0  0  0  0  0  0  0  0  0
   -4.3743    1.8278    0.0000 C   0  0  0  0  0  0  0  0  0  0  0  0
   -2.8744    1.8471    0.0000 C   0  0  0  0  0  0  0  0  0  0  0  0
   -2.1078    0.5578    0.0000 C   0  0  0  0  0  0  0  0  0  0  0  0
   -0.6079    0.5770    0.0000 N   0  0  0  0  0  0  0  0  0  0  0  0
    0.1587   -0.7123    0.0000 C   0  0  0  0  0  0  0  0  0  0  0  0
    1.6586   -0.6930    0.0000 C   0  0  0  0  0  0  0  0  0  0  0  0
    2.5246    0.5317    0.0000 N   0  0  0  0  0  0  0  0  0  0  0  0
    3.9570    0.0866    0.0000 C   0  0  0  0  0  0  0  0  0  0  0  0
    5.1591    0.9837    0.0000 C   0  0  0  0  0  0  0  0  0  0  0  0
    4.9832    2.4734    0.0000 O   0  0  0  0  0  0  0  0  0  0  0  0
    6.5372    0.3913    0.0000 O   0  0  0  0  0  0  0  0  0  0  0  0
    3.9763   -1.4133    0.0000 C   0  0  0  0  0  0  0  0  0  0  0  0
    2.5558   -1.8951    0.0000 S   0  0  0  0  0  0  0  0  0  0  0  0
   -0.5746   -2.0208    0.0000 C   0  0  0  0  0  0  0  0  0  0  0  0
   -2.0744   -2.0401    0.0000 C   0  0  0  0  0  0  0  0  0  0  0  0
   -2.8411   -0.7508    0.0000 C   0  0  0  0  0  0  0  0  0  0  0  0
   -4.3409   -0.7701    0.0000 C   0  0  0  0  0  0  0  0  0  0  0  0
  1  2  1  0
  2  3  1  0
  3  4  2  0
  4  5  1  0
  5  6  2  0
  6  7  1  0
  7  8  1  0
  8  9  2  0
  9 10  1  0
 10 11  1  1
 11 12  2  0
 11 13  1  0
 10 14  1  0
 14 15  1  0
  7 16  2  0
 16 17  1  0
 17 18  2  0
 18 19  1  0
 19  2  2  0
 18  5  1  0
 15  8  1  0
M  END
>  <compound_id>  (181) 
CX18

>  <name>  (181) 
Quinolylaminoluciferin

>  <structural_class>  (181) 
Heterocycle-exchanged core luciferins

>  <subfamily>  (181) 
quinoline

>  <smiles>  (181) 
Nc1ccc2nc(C3=N[C@@H](C(=O)O)CS3)ccc2c1

>  <inchi>  (181) 
InChI=1S/C13H11N3O2S/c14-8-2-4-9-7(5-8)1-3-10(15-9)12-16-11(6-19-12)13(17)18/h1-5,11H,6,14H2,(H,17,18)/t11-/m1/s1

>  <inchikey>  (181) 
GCJUQZULQJRMPC-LLVKDONJSA-N

>  <molecular_formula>  (181) 
C13H11N3O2S

>  <iupac_name>  (181) 
D-(-)-2-(6'-amino-2'-quinolyl)-Delta-2-thiazoline-4-carboxylic acid

>  <stereochemistry>  (181) 
D_enantiomer

$$$$
CX19
     RDKit          2D

 20 22  0  0  0  0  0  0  0  0999 V2000
   -7.0717    1.3984    0.0000 C   0  0  0  0  0  0  0  0  0  0  0  0
   -6.2506    0.1431    0.0000 N   0  0  0  0  0  0  0  0  0  0  0  0
   -4.7529    0.2265    0.0000 C   0  0  0  0  0  0  0  0  0  0  0  0
   -4.0763    1.5653    0.0000 C   0  0  0  0  0  0  0  0  0  0  0  0
   -2.5786    1.6487    0.0000 C   0  0  0  0  0  0  0  0  0  0  0  0
   -1.7575    0.3934    0.0000 C   0  0  0  0  0  0  0  0  0  0  0  0
   -0.2599    0.4769    0.0000 N   0  0  0  0  0  0  0  0  0  0  0  0
    0.5612   -0.7784    0.0000 C   0  0  0  0  0  0  0  0  0  0  0  0
    2.0589   -0.6950    0.0000 C   0  0  0  0  0  0  0  0  0  0  0  0
    2.8717    0.5657    0.0000 N   0  0  0  0  0  0  0  0  0  0  0  0
    4.3219    0.1823    0.0000 C   0  0  0  0  0  0  0  0  0  0  0  0
    5.4845    1.1301    0.0000 C   0  0  0  0  0  0  0  0  0  0  0  0
    5.2449    2.6108    0.0000 O   0  0  0  0  0  0  0  0  0  0  0  0
    6.8866    0.5971    0.0000 O   0  0  0  0  0  0  0  0  0  0  0  0
    4.4053   -1.3154    0.0000 C   0  0  0  0  0  0  0  0  0  0  0  0
    3.0067   -1.8576    0.0000 S   0  0  0  0  0  0  0  0  0  0  0  0
   -0.1153   -2.1172    0.0000 C   0  0  0  0  0  0  0  0  0  0  0  0
   -1.6130   -2.2006    0.0000 C   0  0  0  0  0  0  0  0  0  0  0  0
   -2.4341   -0.9453    0.0000 C   0  0  0  0  0  0  0  0  0  0  0  0
   -3.9318   -1.0288    0.0000 C   0  0  0  0  0  0  0  0  0  0  0  0
  1  2  1  0
  2  3  1  0
  3  4  1  0
  4  5  2  0
  5  6  1  0
  6  7  2  0
  7  8  1  0
  8  9  1  0
  9 10  2  0
 10 11  1  0
 11 12  1  1
 12 13  2  0
 12 14  1  0
 11 15  1  0
 15 16  1  0
  8 17  2  0
 17 18  1  0
 18 19  2  0
 19 20  1  0
 20  3  2  0
 19  6  1  0
 16  9  1  0
M  END
>  <compound_id>  (182) 
CX19

>  <name>  (182) 
Quinolylmethylaminoluciferin

>  <structural_class>  (182) 
Heterocycle-exchanged core luciferins

>  <subfamily>  (182) 
quinoline

>  <smiles>  (182) 
CNc1ccc2nc(C3=N[C@@H](C(=O)O)CS3)ccc2c1

>  <inchi>  (182) 
InChI=1S/C14H13N3O2S/c1-15-9-3-5-10-8(6-9)2-4-11(16-10)13-17-12(7-20-13)14(18)19/h2-6,12,15H,7H2,1H3,(H,18,19)/t12-/m1/s1

>  <inchikey>  (182) 
WUEJASLOUOBDTH-GFCCVEGCSA-N

>  <molecular_formula>  (182) 
C14H13N3O2S

>  <iupac_name>  (182) 
D-(-)-2-(6'-methylamino-2'-quinolyl)-Delta-2-thiazoline-4-carboxylic acid

>  <stereochemistry>  (182) 
D_enantiomer

$$$$
CX20
     RDKit          2D

 21 23  0  0  0  0  0  0  0  0999 V2000
   -6.7060    1.6124    0.0000 C   0  0  0  0  0  0  0  0  0  0  0  0
   -5.9144    0.3383    0.0000 N   0  0  0  0  0  0  0  0  0  0  0  0
   -6.6221   -0.9843    0.0000 C   0  0  0  0  0  0  0  0  0  0  0  0
   -4.4152    0.3867    0.0000 C   0  0  0  0  0  0  0  0  0  0  0  0
   -3.7075    1.7093    0.0000 C   0  0  0  0  0  0  0  0  0  0  0  0
   -2.2083    1.7577    0.0000 C   0  0  0  0  0  0  0  0  0  0  0  0
   -1.4168    0.4836    0.0000 C   0  0  0  0  0  0  0  0  0  0  0  0
    0.0824    0.5320    0.0000 N   0  0  0  0  0  0  0  0  0  0  0  0
    0.8740   -0.7421    0.0000 C   0  0  0  0  0  0  0  0  0  0  0  0
    2.3732   -0.6937    0.0000 C   0  0  0  0  0  0  0  0  0  0  0  0
    3.2153    0.5477    0.0000 N   0  0  0  0  0  0  0  0  0  0  0  0
    4.6561    0.1305    0.0000 C   0  0  0  0  0  0  0  0  0  0  0  0
    5.8405    1.0509    0.0000 C   0  0  0  0  0  0  0  0  0  0  0  0
    5.6356    2.5368    0.0000 O   0  0  0  0  0  0  0  0  0  0  0  0
    7.2298    0.4853    0.0000 O   0  0  0  0  0  0  0  0  0  0  0  0
    4.7045   -1.3687    0.0000 C   0  0  0  0  0  0  0  0  0  0  0  0
    3.2936   -1.8781    0.0000 S   0  0  0  0  0  0  0  0  0  0  0  0
    0.1663   -2.0647    0.0000 C   0  0  0  0  0  0  0  0  0  0  0  0
   -1.3329   -2.1131    0.0000 C   0  0  0  0  0  0  0  0  0  0  0  0
   -2.1244   -0.8390    0.0000 C   0  0  0  0  0  0  0  0  0  0  0  0
   -3.6236   -0.8874    0.0000 C   0  0  0  0  0  0  0  0  0  0  0  0
  1  2  1  0
  2  3  1  0
  2  4  1  0
  4  5  1  0
  5  6  2  0
  6  7  1  0
  7  8  2  0
  8  9  1  0
  9 10  1  0
 10 11  2  0
 11 12  1  0
 12 13  1  1
 13 14  2  0
 13 15  1  0
 12 16  1  0
 16 17  1  0
  9 18  2  0
 18 19  1  0
 19 20  2  0
 20 21  1  0
 21  4  2  0
 20  7  1  0
 17 10  1  0
M  END
>  <compound_id>  (183) 
CX20

>  <name>  (183) 
Quinolyldimethylaminoluciferin

>  <structural_class>  (183) 
Heterocycle-exchanged core luciferins

>  <subfamily>  (183) 
quinoline

>  <smiles>  (183) 
CN(C)c1ccc2nc(C3=N[C@@H](C(=O)O)CS3)ccc2c1

>  <inchi>  (183) 
InChI=1S/C15H15N3O2S/c1-18(2)10-4-6-11-9(7-10)3-5-12(16-11)14-17-13(8-21-14)15(19)20/h3-7,13H,8H2,1-2H3,(H,19,20)/t13-/m1/s1

>  <inchikey>  (183) 
BXWBFCOVZBDLIZ-CYBMUJFWSA-N

>  <molecular_formula>  (183) 
C15H15N3O2S

>  <iupac_name>  (183) 
D-(-)-2-(6'-dimethylamino-2'-quinolyl)-Delta-2-thiazoline-4-carboxylic acid

>  <stereochemistry>  (183) 
D_enantiomer

$$$$
CX21
     RDKit          2D

 20 22  0  0  0  0  0  0  0  0999 V2000
   -7.0717    1.3984    0.0000 C   0  0  0  0  0  0  0  0  0  0  0  0
   -6.2506    0.1431    0.0000 N   0  0  0  0  0  0  0  0  0  0  0  0
   -4.7529    0.2265    0.0000 C   0  0  0  0  0  0  0  0  0  0  0  0
   -4.0763    1.5653    0.0000 C   0  0  0  0  0  0  0  0  0  0  0  0
   -2.5786    1.6487    0.0000 C   0  0  0  0  0  0  0  0  0  0  0  0
   -1.7575    0.3934    0.0000 C   0  0  0  0  0  0  0  0  0  0  0  0
   -0.2599    0.4769    0.0000 C   0  0  0  0  0  0  0  0  0  0  0  0
    0.5612   -0.7784    0.0000 C   0  0  0  0  0  0  0  0  0  0  0  0
    2.0589   -0.6950    0.0000 C   0  0  0  0  0  0  0  0  0  0  0  0
    2.8717    0.5657    0.0000 N   0  0  0  0  0  0  0  0  0  0  0  0
    4.3219    0.1823    0.0000 C   0  0  0  0  0  0  0  0  0  0  0  0
    5.4845    1.1301    0.0000 C   0  0  0  0  0  0  0  0  0  0  0  0
    5.2449    2.6108    0.0000 O   0  0  0  0  0  0  0  0  0  0  0  0
    6.8866    0.5971    0.0000 O   0  0  0  0  0  0  0  0  0  0  0  0
    4.4053   -1.3154    0.0000 C   0  0  0  0  0  0  0  0  0  0  0  0
    3.0067   -1.8576    0.0000 S   0  0  0  0  0  0  0  0  0  0  0  0
   -0.1153   -2.1172    0.0000 C   0  0  0  0  0  0  0  0  0  0  0  0
   -1.6130   -2.2006    0.0000 C   0  0  0  0  0  0  0  0  0  0  0  0
   -2.4341   -0.9453    0.0000 C   0  0  0  0  0  0  0  0  0  0  0  0
   -3.9318   -1.0288    0.0000 C   0  0  0  0  0  0  0  0  0  0  0  0
  1  2  1  0
  2  3  1  0
  3  4  1  0
  4  5  2  0
  5  6  1  0
  6  7  2  0
  7  8  1  0
  8  9  1  0
  9 10  2  0
 10 11  1  0
 11 12  1  1
 12 13  2  0
 12 14  1  0
 11 15  1  0
 15 16  1  0
  8 17  2  0
 17 18  1  0
 18 19  2  0
 19 20  1  0
 20  3  2  0
 19  6  1  0
 16  9  1  0
M  END
>  <compound_id>  (184) 
CX21

>  <name>  (184) 
Naphthylmethylaminoluciferin

>  <structural_class>  (184) 
Heterocycle-exchanged core luciferins

>  <subfamily>  (184) 
naphthalene

>  <smiles>  (184) 
CNc1ccc2cc(C3=N[C@@H](C(=O)O)CS3)ccc2c1

>  <inchi>  (184) 
InChI=1S/C15H14N2O2S/c1-16-12-5-4-9-6-11(3-2-10(9)7-12)14-17-13(8-20-14)15(18)19/h2-7,13,16H,8H2,1H3,(H,18,19)/t13-/m1/s1

>  <inchikey>  (184) 
PDFYDNPZRJNNNG-CYBMUJFWSA-N

>  <molecular_formula>  (184) 
C15H14N2O2S

>  <iupac_name>  (184) 
D-(-)-2-(6'-methylamino-2'-naphthyl)-Delta-2-thiazoline-4-carboxylic acid

>  <stereochemistry>  (184) 
D_enantiomer

$$$$
CX22
     RDKit          2D

 20 22  0  0  0  0  0  0  0  0999 V2000
   -6.6187    0.6483    0.0000 N   0  0  0  0  0  0  0  0  0  0  0  0
   -5.1189    0.6715    0.0000 C   0  0  0  0  0  0  0  0  0  0  0  0
   -4.3890    1.9819    0.0000 C   0  0  0  0  0  0  0  0  0  0  0  0
   -2.8892    2.0051    0.0000 C   0  0  0  0  0  0  0  0  0  0  0  0
   -2.1193    0.7178    0.0000 C   0  0  0  0  0  0  0  0  0  0  0  0
   -0.6194    0.7409    0.0000 C   0  0  0  0  0  0  0  0  0  0  0  0
    0.1505   -0.5464    0.0000 C   0  0  0  0  0  0  0  0  0  0  0  0
    1.6503   -0.5232    0.0000 C   0  0  0  0  0  0  0  0  0  0  0  0
    2.5132    0.7037    0.0000 N   0  0  0  0  0  0  0  0  0  0  0  0
    3.9467    0.2623    0.0000 C   0  0  0  0  0  0  0  0  0  0  0  0
    5.1465    1.1626    0.0000 C   0  0  0  0  0  0  0  0  0  0  0  0
    4.9667    2.6518    0.0000 O   0  0  0  0  0  0  0  0  0  0  0  0
    6.5261    0.5737    0.0000 O   0  0  0  0  0  0  0  0  0  0  0  0
    3.9699   -1.2375    0.0000 C   0  0  0  0  0  0  0  0  0  0  0  0
    2.5506   -1.7230    0.0000 S   0  0  0  0  0  0  0  0  0  0  0  0
   -0.5794   -1.8568    0.0000 C   0  0  0  0  0  0  0  0  0  0  0  0
    0.1906   -3.1442    0.0000 O   0  0  0  0  0  0  0  0  0  0  0  0
   -2.0792   -1.8800    0.0000 O   0  0  0  0  0  0  0  0  0  0  0  0
   -2.8491   -0.5927    0.0000 C   0  0  0  0  0  0  0  0  0  0  0  0
   -4.3490   -0.6158    0.0000 C   0  0  0  0  0  0  0  0  0  0  0  0
  1  2  1  0
  2  3  1  0
  3  4  2  0
  4  5  1  0
  5  6  1  0
  6  7  2  0
  7  8  1  0
  8  9  2  0
  9 10  1  0
 10 11  1  1
 11 12  2  0
 11 13  1  0
 10 14  1  0
 14 15  1  0
  7 16  1  0
 16 17  2  0
 16 18  1  0
 18 19  1  0
 19 20  1  0
 20  2  2  0
 19  5  2  0
 15  8  1  0
M  END
>  <compound_id>  (185) 
CX22

>  <name>  (185) 
Coumarylaminoluciferin

>  <structural_class>  (185) 
Heterocycle-exchanged core luciferins

>  <subfamily>  (185) 
coumarin

>  <smiles>  (185) 
Nc1ccc2cc(C3=N[C@@H](C(=O)O)CS3)c(=O)oc2c1

>  <inchi>  (185) 
InChI=1S/C13H10N2O4S/c14-7-2-1-6-3-8(13(18)19-10(6)4-7)11-15-9(5-20-11)12(16)17/h1-4,9H,5,14H2,(H,16,17)/t9-/m1/s1

>  <inchikey>  (185) 
CMYWOVABKRGTCV-SECBINFHSA-N

>  <molecular_formula>  (185) 
C13H10N2O4S

>  <iupac_name>  (185) 
D-(-)-2-(7'-amino-3'-coumaryl)-Delta-2-thiazoline-4-carboxylic acid

>  <stereochemistry>  (185) 
D_enantiomer

$$$$
CX23
     RDKit          2D

 21 23  0  0  0  0  0  0  0  0999 V2000
   -7.1176    1.5020    0.0000 C   0  0  0  0  0  0  0  0  0  0  0  0
   -6.2864    0.2533    0.0000 N   0  0  0  0  0  0  0  0  0  0  0  0
   -4.7895    0.3488    0.0000 C   0  0  0  0  0  0  0  0  0  0  0  0
   -4.1236    1.6929    0.0000 C   0  0  0  0  0  0  0  0  0  0  0  0
   -2.6267    1.7883    0.0000 C   0  0  0  0  0  0  0  0  0  0  0  0
   -1.7955    0.5396    0.0000 C   0  0  0  0  0  0  0  0  0  0  0  0
   -0.2986    0.6351    0.0000 C   0  0  0  0  0  0  0  0  0  0  0  0
    0.5326   -0.6136    0.0000 C   0  0  0  0  0  0  0  0  0  0  0  0
    2.0295   -0.5181    0.0000 C   0  0  0  0  0  0  0  0  0  0  0  0
    2.8322    0.7490    0.0000 N   0  0  0  0  0  0  0  0  0  0  0  0
    4.2854    0.3772    0.0000 C   0  0  0  0  0  0  0  0  0  0  0  0
    5.4403    1.3343    0.0000 C   0  0  0  0  0  0  0  0  0  0  0  0
    5.1889    2.8131    0.0000 O   0  0  0  0  0  0  0  0  0  0  0  0
    6.8467    0.8126    0.0000 O   0  0  0  0  0  0  0  0  0  0  0  0
    4.3808   -1.1197    0.0000 C   0  0  0  0  0  0  0  0  0  0  0  0
    2.9866   -1.6731    0.0000 S   0  0  0  0  0  0  0  0  0  0  0  0
   -0.1333   -1.9577    0.0000 C   0  0  0  0  0  0  0  0  0  0  0  0
    0.6979   -3.2064    0.0000 O   0  0  0  0  0  0  0  0  0  0  0  0
   -1.6302   -2.0532    0.0000 O   0  0  0  0  0  0  0  0  0  0  0  0
   -2.4614   -0.8045    0.0000 C   0  0  0  0  0  0  0  0  0  0  0  0
   -3.9583   -0.8999    0.0000 C   0  0  0  0  0  0  0  0  0  0  0  0
  1  2  1  0
  2  3  1  0
  3  4  1  0
  4  5  2  0
  5  6  1  0
  6  7  1  0
  7  8  2  0
  8  9  1  0
  9 10  2  0
 10 11  1  0
 11 12  1  1
 12 13  2  0
 12 14  1  0
 11 15  1  0
 15 16  1  0
  8 17  1  0
 17 18  2  0
 17 19  1  0
 19 20  1  0
 20 21  1  0
 21  3  2  0
 20  6  2  0
 16  9  1  0
M  END
>  <compound_id>  (186) 
CX23

>  <name>  (186) 
Coumarylmethylaminoluciferin

>  <structural_class>  (186) 
Heterocycle-exchanged core luciferins

>  <subfamily>  (186) 
coumarin

>  <smiles>  (186) 
CNc1ccc2cc(C3=N[C@@H](C(=O)O)CS3)c(=O)oc2c1

>  <inchi>  (186) 
InChI=1S/C14H12N2O4S/c1-15-8-3-2-7-4-9(14(19)20-11(7)5-8)12-16-10(6-21-12)13(17)18/h2-5,10,15H,6H2,1H3,(H,17,18)/t10-/m1/s1

>  <inchikey>  (186) 
OWTMQYHGBOWCBW-SNVBAGLBSA-N

>  <molecular_formula>  (186) 
C14H12N2O4S

>  <iupac_name>  (186) 
D-(-)-2-(7'-methylamino-3'-coumaryl)-Delta-2-thiazoline-4-carboxylic acid

>  <stereochemistry>  (186) 
D_enantiomer

$$$$
CX24
     RDKit          2D

 22 24  0  0  0  0  0  0  0  0999 V2000
   -6.7656    1.7013    0.0000 C   0  0  0  0  0  0  0  0  0  0  0  0
   -5.9623    0.4346    0.0000 N   0  0  0  0  0  0  0  0  0  0  0  0
   -6.6576   -0.8945    0.0000 C   0  0  0  0  0  0  0  0  0  0  0  0
   -4.4636    0.4970    0.0000 C   0  0  0  0  0  0  0  0  0  0  0  0
   -3.7682    1.8261    0.0000 C   0  0  0  0  0  0  0  0  0  0  0  0
   -2.2695    1.8885    0.0000 C   0  0  0  0  0  0  0  0  0  0  0  0
   -1.4662    0.6217    0.0000 C   0  0  0  0  0  0  0  0  0  0  0  0
    0.0325    0.6841    0.0000 C   0  0  0  0  0  0  0  0  0  0  0  0
    0.8359   -0.5826    0.0000 C   0  0  0  0  0  0  0  0  0  0  0  0
    2.3346   -0.5202    0.0000 C   0  0  0  0  0  0  0  0  0  0  0  0
    3.1651    0.7289    0.0000 N   0  0  0  0  0  0  0  0  0  0  0  0
    4.6097    0.3251    0.0000 C   0  0  0  0  0  0  0  0  0  0  0  0
    5.7855    1.2565    0.0000 C   0  0  0  0  0  0  0  0  0  0  0  0
    5.5668    2.7405    0.0000 O   0  0  0  0  0  0  0  0  0  0  0  0
    7.1800    0.7039    0.0000 O   0  0  0  0  0  0  0  0  0  0  0  0
    4.6721   -1.1736    0.0000 C   0  0  0  0  0  0  0  0  0  0  0  0
    3.2660   -1.6960    0.0000 S   0  0  0  0  0  0  0  0  0  0  0  0
    0.1406   -1.9117    0.0000 C   0  0  0  0  0  0  0  0  0  0  0  0
    0.9440   -3.1784    0.0000 O   0  0  0  0  0  0  0  0  0  0  0  0
   -1.3581   -1.9741    0.0000 O   0  0  0  0  0  0  0  0  0  0  0  0
   -2.1615   -0.7074    0.0000 C   0  0  0  0  0  0  0  0  0  0  0  0
   -3.6602   -0.7698    0.0000 C   0  0  0  0  0  0  0  0  0  0  0  0
  1  2  1  0
  2  3  1  0
  2  4  1  0
  4  5  1  0
  5  6  2  0
  6  7  1  0
  7  8  1  0
  8  9  2  0
  9 10  1  0
 10 11  2  0
 11 12  1  0
 12 13  1  1
 13 14  2  0
 13 15  1  0
 12 16  1  0
 16 17  1  0
  9 18  1  0
 18 19  2  0
 18 20  1  0
 20 21  1  0
 21 22  1  0
 22  4  2  0
 21  7  2  0
 17 10  1  0
M  END
>  <compound_id>  (187) 
CX24

>  <name>  (187) 
Coumaryldimethylaminoluciferin

>  <structural_class>  (187) 
Heterocycle-exchanged core luciferins

>  <subfamily>  (187) 
coumarin

>  <smiles>  (187) 
CN(C)c1ccc2cc(C3=N[C@@H](C(=O)O)CS3)c(=O)oc2c1

>  <inchi>  (187) 
InChI=1S/C15H14N2O4S/c1-17(2)9-4-3-8-5-10(15(20)21-12(8)6-9)13-16-11(7-22-13)14(18)19/h3-6,11H,7H2,1-2H3,(H,18,19)/t11-/m1/s1

>  <inchikey>  (187) 
NVCCMHIZJXVERX-LLVKDONJSA-N

>  <molecular_formula>  (187) 
C15H14N2O4S

>  <iupac_name>  (187) 
D-(-)-2-(7'-dimethylamino-3'-coumaryl)-Delta-2-thiazoline-4-carboxylic acid

>  <stereochemistry>  (187) 
D_enantiomer

$$$$
AM26
     RDKit          2D

 20 22  0  0  0  0  0  0  0  0999 V2000
   -8.1697   -0.2565    0.0000 C   0  0  0  0  0  0  0  0  0  0  0  0
   -6.7647    0.2688    0.0000 C   0  0  0  0  0  0  0  0  0  0  0  0
   -5.6073   -0.6853    0.0000 N   0  0  0  0  0  0  0  0  0  0  0  0
   -4.2023   -0.1600    0.0000 C   0  0  0  0  0  0  0  0  0  0  0  0
   -3.9547    1.3194    0.0000 C   0  0  0  0  0  0  0  0  0  0  0  0
   -2.5497    1.8448    0.0000 C   0  0  0  0  0  0  0  0  0  0  0  0
   -1.3923    0.8907    0.0000 C   0  0  0  0  0  0  0  0  0  0  0  0
    0.0912    1.1124    0.0000 N   0  0  0  0  0  0  0  0  0  0  0  0
    0.7606   -0.2300    0.0000 C   0  0  0  0  0  0  0  0  0  0  0  0
    2.2400   -0.4776    0.0000 C   0  0  0  0  0  0  0  0  0  0  0  0
    3.3098    0.5738    0.0000 N   0  0  0  0  0  0  0  0  0  0  0  0
    4.6404   -0.1188    0.0000 C   0  0  0  0  0  0  0  0  0  0  0  0
    5.9828    0.5505    0.0000 C   0  0  0  0  0  0  0  0  0  0  0  0
    6.0743    2.0477    0.0000 O   0  0  0  0  0  0  0  0  0  0  0  0
    7.2336   -0.2774    0.0000 O   0  0  0  0  0  0  0  0  0  0  0  0
    4.3928   -1.5982    0.0000 C   0  0  0  0  0  0  0  0  0  0  0  0
    2.9093   -1.8200    0.0000 S   0  0  0  0  0  0  0  0  0  0  0  0
   -0.3093   -1.2814    0.0000 S   0  0  0  0  0  0  0  0  0  0  0  0
   -1.6398   -0.5888    0.0000 C   0  0  0  0  0  0  0  0  0  0  0  0
   -3.0448   -1.1141    0.0000 C   0  0  0  0  0  0  0  0  0  0  0  0
  1  2  1  0
  2  3  1  0
  3  4  1  0
  4  5  1  0
  5  6  2  0
  6  7  1  0
  7  8  1  0
  8  9  2  0
  9 10  1  0
 10 11  2  0
 11 12  1  0
 12 13  1  1
 13 14  2  0
 13 15  1  0
 12 16  1  0
 16 17  1  0
  9 18  1  0
 18 19  1  0
 19 20  1  0
 20  4  2  0
 19  7  2  0
 17 10  1  0
M  END
>  <compound_id>  (188) 
AM26

>  <name>  (188) 
6'-Ethylaminoluciferin

>  <structural_class>  (188) 
6'-Aminoluciferins, acyclic N-alkyl and pendant amine

>  <subfamily>  (188) 
benzothiazole

>  <smiles>  (188) 
CCNc1ccc2nc(C3=N[C@@H](C(=O)O)CS3)sc2c1

>  <inchi>  (188) 
InChI=1S/C13H13N3O2S2/c1-2-14-7-3-4-8-10(5-7)20-12(15-8)11-16-9(6-19-11)13(17)18/h3-5,9,14H,2,6H2,1H3,(H,17,18)/t9-/m1/s1

>  <inchikey>  (188) 
XXTIWMCDLOTLJP-SECBINFHSA-N

>  <molecular_formula>  (188) 
C13H13N3O2S2

>  <iupac_name>  (188) 
D-(-)-2-(6'-ethylamino-2'-benzothiazolyl)-Delta-2-thiazoline-4-carboxylic acid

>  <stereochemistry>  (188) 
D_enantiomer

$$$$
AM27
     RDKit          2D

 22 24  0  0  0  0  0  0  0  0999 V2000
   -7.5590    0.4713    0.0000 C   0  0  0  0  0  0  0  0  0  0  0  0
   -6.1220    0.9014    0.0000 C   0  0  0  0  0  0  0  0  0  0  0  0
   -5.0310   -0.1281    0.0000 N   0  0  0  0  0  0  0  0  0  0  0  0
   -5.3771   -1.5876    0.0000 C   0  0  0  0  0  0  0  0  0  0  0  0
   -6.8141   -2.0177    0.0000 C   0  0  0  0  0  0  0  0  0  0  0  0
   -3.5940    0.3020    0.0000 C   0  0  0  0  0  0  0  0  0  0  0  0
   -3.2480    1.7615    0.0000 C   0  0  0  0  0  0  0  0  0  0  0  0
   -1.8109    2.1916    0.0000 C   0  0  0  0  0  0  0  0  0  0  0  0
   -0.7200    1.1621    0.0000 C   0  0  0  0  0  0  0  0  0  0  0  0
    0.7751    1.2840    0.0000 N   0  0  0  0  0  0  0  0  0  0  0  0
    1.3530   -0.1001    0.0000 C   0  0  0  0  0  0  0  0  0  0  0  0
    2.8125   -0.4462    0.0000 C   0  0  0  0  0  0  0  0  0  0  0  0
    3.9504    0.5312    0.0000 N   0  0  0  0  0  0  0  0  0  0  0  0
    5.2316   -0.2489    0.0000 C   0  0  0  0  0  0  0  0  0  0  0  0
    6.6158    0.3290    0.0000 C   0  0  0  0  0  0  0  0  0  0  0  0
    6.8074    1.8167    0.0000 O   0  0  0  0  0  0  0  0  0  0  0  0
    7.8084   -0.5808    0.0000 O   0  0  0  0  0  0  0  0  0  0  0  0
    4.8855   -1.7085    0.0000 C   0  0  0  0  0  0  0  0  0  0  0  0
    3.3905   -1.8304    0.0000 S   0  0  0  0  0  0  0  0  0  0  0  0
    0.2151   -1.0775    0.0000 S   0  0  0  0  0  0  0  0  0  0  0  0
   -1.0660   -0.2974    0.0000 C   0  0  0  0  0  0  0  0  0  0  0  0
   -2.5030   -0.7275    0.0000 C   0  0  0  0  0  0  0  0  0  0  0  0
  1  2  1  0
  2  3  1  0
  3  4  1  0
  4  5  1  0
  3  6  1  0
  6  7  1  0
  7  8  2  0
  8  9  1  0
  9 10  1  0
 10 11  2  0
 11 12  1  0
 12 13  2  0
 13 14  1  0
 14 15  1  1
 15 16  2  0
 15 17  1  0
 14 18  1  0
 18 19  1  0
 11 20  1  0
 20 21  1  0
 21 22  1  0
 22  6  2  0
 21  9  2  0
 19 12  1  0
M  END
>  <compound_id>  (189) 
AM27

>  <name>  (189) 
6'-Diethylaminoluciferin

>  <structural_class>  (189) 
6'-Aminoluciferins, acyclic N-alkyl and pendant amine

>  <subfamily>  (189) 
benzothiazole

>  <smiles>  (189) 
CCN(CC)c1ccc2nc(C3=N[C@@H](C(=O)O)CS3)sc2c1

>  <inchi>  (189) 
InChI=1S/C15H17N3O2S2/c1-3-18(4-2)9-5-6-10-12(7-9)22-14(16-10)13-17-11(8-21-13)15(19)20/h5-7,11H,3-4,8H2,1-2H3,(H,19,20)/t11-/m1/s1

>  <inchikey>  (189) 
NYTNGXNFUABNNQ-LLVKDONJSA-N

>  <molecular_formula>  (189) 
C15H17N3O2S2

>  <iupac_name>  (189) 
D-(-)-2-(6'-diethylamino-2'-benzothiazolyl)-Delta-2-thiazoline-4-carboxylic acid

>  <stereochemistry>  (189) 
D_enantiomer

$$$$
AM28
     RDKit          2D

 25 28  0  0  0  0  0  0  0  0999 V2000
   -9.0446    0.9698    0.0000 O   0  0  0  0  0  0  0  0  0  0  0  0
   -7.6254    1.4555    0.0000 C   0  0  0  0  0  0  0  0  0  0  0  0
   -7.3364    2.9274    0.0000 O   0  0  0  0  0  0  0  0  0  0  0  0
   -6.4952    0.4692    0.0000 C   0  0  0  0  0  0  0  0  0  0  0  0
   -6.6288   -1.0248    0.0000 C   0  0  0  0  0  0  0  0  0  0  0  0
   -5.2492   -1.6136    0.0000 S   0  0  0  0  0  0  0  0  0  0  0  0
   -4.2629   -0.4834    0.0000 C   0  0  0  0  0  0  0  0  0  0  0  0
   -2.7689   -0.6169    0.0000 C   0  0  0  0  0  0  0  0  0  0  0  0
   -1.9988   -1.9042    0.0000 N   0  0  0  0  0  0  0  0  0  0  0  0
   -0.5366   -1.5695    0.0000 C   0  0  0  0  0  0  0  0  0  0  0  0
    0.6905   -2.4322    0.0000 C   0  0  0  0  0  0  0  0  0  0  0  0
    2.0512   -1.8009    0.0000 C   0  0  0  0  0  0  0  0  0  0  0  0
    2.1848   -0.3068    0.0000 C   0  0  0  0  0  0  0  0  0  0  0  0
    3.5454    0.3245    0.0000 N   0  0  0  0  0  0  0  0  0  0  0  0
    4.7725   -0.5382    0.0000 C   0  0  0  0  0  0  0  0  0  0  0  0
    6.1332    0.0931    0.0000 C   0  0  0  0  0  0  0  0  0  0  0  0
    7.3603   -0.7696    0.0000 C   0  0  0  0  0  0  0  0  0  0  0  0
    8.7209   -0.1382    0.0000 C   0  0  0  0  0  0  0  0  0  0  0  0
    8.8545    1.3558    0.0000 C   0  0  0  0  0  0  0  0  0  0  0  0
    7.6274    2.2185    0.0000 C   0  0  0  0  0  0  0  0  0  0  0  0
    6.2668    1.5872    0.0000 C   0  0  0  0  0  0  0  0  0  0  0  0
    0.9577    0.5559    0.0000 C   0  0  0  0  0  0  0  0  0  0  0  0
   -0.4030   -0.0755    0.0000 C   0  0  0  0  0  0  0  0  0  0  0  0
   -1.7826    0.5132    0.0000 S   0  0  0  0  0  0  0  0  0  0  0  0
   -5.0330    0.8039    0.0000 N   0  0  0  0  0  0  0  0  0  0  0  0
  1  2  2  0
  2  3  1  0
  4  2  1  6
  4  5  1  0
  5  6  1  0
  6  7  1  0
  7  8  1  0
  8  9  2  0
  9 10  1  0
 10 11  1  0
 11 12  2  0
 12 13  1  0
 13 14  1  0
 14 15  1  0
 15 16  1  0
 16 17  2  0
 17 18  1  0
 18 19  2  0
 19 20  1  0
 20 21  2  0
 13 22  2  0
 22 23  1  0
 23 24  1  0
  7 25  2  0
 25  4  1  0
 24  8  1  0
 23 10  2  0
 21 16  1  0
M  END
>  <compound_id>  (190) 
AM28

>  <name>  (190) 
6'-Benzylaminoluciferin

>  <structural_class>  (190) 
6'-Aminoluciferins, acyclic N-alkyl and pendant amine

>  <subfamily>  (190) 
benzothiazole

>  <smiles>  (190) 
O=C(O)[C@H]1CSC(c2nc3ccc(NCc4ccccc4)cc3s2)=N1

>  <inchi>  (190) 
InChI=1S/C18H15N3O2S2/c22-18(23)14-10-24-16(21-14)17-20-13-7-6-12(8-15(13)25-17)19-9-11-4-2-1-3-5-11/h1-8,14,19H,9-10H2,(H,22,23)/t14-/m1/s1

>  <inchikey>  (190) 
MPDSAELCXIYJPH-CQSZACIVSA-N

>  <molecular_formula>  (190) 
C18H15N3O2S2

>  <iupac_name>  (190) 
D-(-)-2-(6'-benzylamino-2'-benzothiazolyl)-Delta-2-thiazoline-4-carboxylic acid

>  <stereochemistry>  (190) 
D_enantiomer

$$$$
AM29
     RDKit          2D

 26 29  0  0  0  0  0  0  0  0999 V2000
   -9.6472    0.2943    0.0000 O   0  0  0  0  0  0  0  0  0  0  0  0
   -8.3007    0.9553    0.0000 C   0  0  0  0  0  0  0  0  0  0  0  0
   -8.1998    2.4519    0.0000 O   0  0  0  0  0  0  0  0  0  0  0  0
   -7.0550    0.1196    0.0000 C   0  0  0  0  0  0  0  0  0  0  0  0
   -6.9989   -1.3793    0.0000 C   0  0  0  0  0  0  0  0  0  0  0  0
   -5.5559   -1.7891    0.0000 S   0  0  0  0  0  0  0  0  0  0  0  0
   -4.7203   -0.5435    0.0000 C   0  0  0  0  0  0  0  0  0  0  0  0
   -3.2214   -0.4873    0.0000 C   0  0  0  0  0  0  0  0  0  0  0  0
   -2.2949   -1.6670    0.0000 N   0  0  0  0  0  0  0  0  0  0  0  0
   -0.8866   -1.1504    0.0000 C   0  0  0  0  0  0  0  0  0  0  0  0
    0.4396   -1.8513    0.0000 C   0  0  0  0  0  0  0  0  0  0  0  0
    1.7096   -1.0532    0.0000 C   0  0  0  0  0  0  0  0  0  0  0  0
    1.6535    0.4458    0.0000 C   0  0  0  0  0  0  0  0  0  0  0  0
    2.9235    1.2439    0.0000 N   0  0  0  0  0  0  0  0  0  0  0  0
    4.2497    0.5430    0.0000 C   0  0  0  0  0  0  0  0  0  0  0  0
    5.5198    1.3411    0.0000 C   0  0  0  0  0  0  0  0  0  0  0  0
    6.8460    0.6403    0.0000 C   0  0  0  0  0  0  0  0  0  0  0  0
    6.9021   -0.8587    0.0000 C   0  0  0  0  0  0  0  0  0  0  0  0
    8.2283   -1.5596    0.0000 C   0  0  0  0  0  0  0  0  0  0  0  0
    9.4984   -0.7615    0.0000 C   0  0  0  0  0  0  0  0  0  0  0  0
    9.4422    0.7375    0.0000 C   0  0  0  0  0  0  0  0  0  0  0  0
    8.1160    1.4383    0.0000 C   0  0  0  0  0  0  0  0  0  0  0  0
    0.3273    1.1466    0.0000 C   0  0  0  0  0  0  0  0  0  0  0  0
   -0.9428    0.3485    0.0000 C   0  0  0  0  0  0  0  0  0  0  0  0
   -2.3857    0.7584    0.0000 S   0  0  0  0  0  0  0  0  0  0  0  0
   -5.6468    0.6362    0.0000 N   0  0  0  0  0  0  0  0  0  0  0  0
  1  2  2  0
  2  3  1  0
  4  2  1  6
  4  5  1  0
  5  6  1  0
  6  7  1  0
  7  8  1  0
  8  9  2  0
  9 10  1  0
 10 11  1  0
 11 12  2  0
 12 13  1  0
 13 14  1  0
 14 15  1  0
 15 16  1  0
 16 17  1  0
 17 18  2  0
 18 19  1  0
 19 20  2  0
 20 21  1  0
 21 22  2  0
 13 23  2  0
 23 24  1  0
 24 25  1  0
  7 26  2  0
 26  4  1  0
 25  8  1  0
 24 10  2  0
 22 17  1  0
M  END
>  <compound_id>  (191) 
AM29

>  <name>  (191) 
6'-Phenethylaminoluciferin

>  <structural_class>  (191) 
6'-Aminoluciferins, acyclic N-alkyl and pendant amine

>  <subfamily>  (191) 
benzothiazole

>  <smiles>  (191) 
O=C(O)[C@H]1CSC(c2nc3ccc(NCCc4ccccc4)cc3s2)=N1

>  <inchi>  (191) 
InChI=1S/C19H17N3O2S2/c23-19(24)15-11-25-17(22-15)18-21-14-7-6-13(10-16(14)26-18)20-9-8-12-4-2-1-3-5-12/h1-7,10,15,20H,8-9,11H2,(H,23,24)/t15-/m1/s1

>  <inchikey>  (191) 
PCCPTAINLFWKAM-OAHLLOKOSA-N

>  <molecular_formula>  (191) 
C19H17N3O2S2

>  <iupac_name>  (191) 
D-(-)-2-(6'-phenethylamino-2'-benzothiazolyl)-Delta-2-thiazoline-4-carboxylic acid

>  <stereochemistry>  (191) 
D_enantiomer

$$$$
AM30
     RDKit          2D

 27 30  0  0  0  0  0  0  0  0999 V2000
  -10.1249    0.9920    0.0000 O   0  0  0  0  0  0  0  0  0  0  0  0
   -8.7083    1.4852    0.0000 C   0  0  0  0  0  0  0  0  0  0  0  0
   -8.4272    2.9586    0.0000 O   0  0  0  0  0  0  0  0  0  0  0  0
   -7.5728    0.5051    0.0000 C   0  0  0  0  0  0  0  0  0  0  0  0
   -7.6984   -0.9897    0.0000 C   0  0  0  0  0  0  0  0  0  0  0  0
   -6.3156   -1.5710    0.0000 S   0  0  0  0  0  0  0  0  0  0  0  0
   -5.3355   -0.4355    0.0000 C   0  0  0  0  0  0  0  0  0  0  0  0
   -3.8407   -0.5611    0.0000 C   0  0  0  0  0  0  0  0  0  0  0  0
   -3.0637   -1.8442    0.0000 N   0  0  0  0  0  0  0  0  0  0  0  0
   -1.6033   -1.5017    0.0000 C   0  0  0  0  0  0  0  0  0  0  0  0
   -0.3716   -2.3578    0.0000 C   0  0  0  0  0  0  0  0  0  0  0  0
    0.9856   -1.7192    0.0000 C   0  0  0  0  0  0  0  0  0  0  0  0
    1.1112   -0.2244    0.0000 C   0  0  0  0  0  0  0  0  0  0  0  0
    2.4684    0.4142    0.0000 N   0  0  0  0  0  0  0  0  0  0  0  0
    3.7001   -0.4419    0.0000 C   0  0  0  0  0  0  0  0  0  0  0  0
    5.0574    0.1967    0.0000 C   0  0  0  0  0  0  0  0  0  0  0  0
    6.2891   -0.6594    0.0000 C   0  0  0  0  0  0  0  0  0  0  0  0
    7.6463   -0.0207    0.0000 C   0  0  0  0  0  0  0  0  0  0  0  0
    8.8780   -0.8769    0.0000 C   0  0  0  0  0  0  0  0  0  0  0  0
   10.2353   -0.2382    0.0000 C   0  0  0  0  0  0  0  0  0  0  0  0
   10.3609    1.2565    0.0000 C   0  0  0  0  0  0  0  0  0  0  0  0
    9.1292    2.1126    0.0000 C   0  0  0  0  0  0  0  0  0  0  0  0
    7.7719    1.4740    0.0000 C   0  0  0  0  0  0  0  0  0  0  0  0
   -0.1205    0.6317    0.0000 C   0  0  0  0  0  0  0  0  0  0  0  0
   -1.4778   -0.0069    0.0000 C   0  0  0  0  0  0  0  0  0  0  0  0
   -2.8606    0.5744    0.0000 S   0  0  0  0  0  0  0  0  0  0  0  0
   -6.1125    0.8475    0.0000 N   0  0  0  0  0  0  0  0  0  0  0  0
  1  2  2  0
  2  3  1  0
  4  2  1  6
  4  5  1  0
  5  6  1  0
  6  7  1  0
  7  8  1  0
  8  9  2  0
  9 10  1  0
 10 11  1  0
 11 12  2  0
 12 13  1  0
 13 14  1  0
 14 15  1  0
 15 16  1  0
 16 17  1  0
 17 18  1  0
 18 19  2  0
 19 20  1  0
 20 21  2  0
 21 22  1  0
 22 23  2  0
 13 24  2  0
 24 25  1  0
 25 26  1  0
  7 27  2  0
 27  4  1  0
 26  8  1  0
 25 10  2  0
 23 18  1  0
M  END
>  <compound_id>  (192) 
AM30

>  <name>  (192) 
6'-(3-Phenylpropylamino)luciferin

>  <structural_class>  (192) 
6'-Aminoluciferins, acyclic N-alkyl and pendant amine

>  <subfamily>  (192) 
benzothiazole

>  <smiles>  (192) 
O=C(O)[C@H]1CSC(c2nc3ccc(NCCCc4ccccc4)cc3s2)=N1

>  <inchi>  (192) 
InChI=1S/C20H19N3O2S2/c24-20(25)16-12-26-18(23-16)19-22-15-9-8-14(11-17(15)27-19)21-10-4-7-13-5-2-1-3-6-13/h1-3,5-6,8-9,11,16,21H,4,7,10,12H2,(H,24,25)/t16-/m1/s1

>  <inchikey>  (192) 
AAFXIELCGXOSLF-MRXNPFEDSA-N

>  <molecular_formula>  (192) 
C20H19N3O2S2

>  <iupac_name>  (192) 
D-(-)-2--Delta-2-thiazoline-4-carboxylic acid

>  <stereochemistry>  (192) 
D_enantiomer

$$$$
AM31
     RDKit          2D

 28 31  0  0  0  0  0  0  0  0999 V2000
  -10.7338    0.3587    0.0000 O   0  0  0  0  0  0  0  0  0  0  0  0
   -9.3776    0.9996    0.0000 C   0  0  0  0  0  0  0  0  0  0  0  0
   -9.2545    2.4946    0.0000 O   0  0  0  0  0  0  0  0  0  0  0  0
   -8.1445    0.1456    0.0000 C   0  0  0  0  0  0  0  0  0  0  0  0
   -8.1106   -1.3541    0.0000 C   0  0  0  0  0  0  0  0  0  0  0  0
   -6.6739   -1.7853    0.0000 S   0  0  0  0  0  0  0  0  0  0  0  0
   -5.8198   -0.5521    0.0000 C   0  0  0  0  0  0  0  0  0  0  0  0
   -4.3202   -0.5183    0.0000 C   0  0  0  0  0  0  0  0  0  0  0  0
   -3.4114   -1.7116    0.0000 N   0  0  0  0  0  0  0  0  0  0  0  0
   -1.9956   -1.2160    0.0000 C   0  0  0  0  0  0  0  0  0  0  0  0
   -0.6800   -1.9364    0.0000 C   0  0  0  0  0  0  0  0  0  0  0  0
    0.6018   -1.1573    0.0000 C   0  0  0  0  0  0  0  0  0  0  0  0
    0.5679    0.3423    0.0000 C   0  0  0  0  0  0  0  0  0  0  0  0
    1.8497    1.1215    0.0000 N   0  0  0  0  0  0  0  0  0  0  0  0
    3.1653    0.4010    0.0000 C   0  0  0  0  0  0  0  0  0  0  0  0
    4.4471    1.1801    0.0000 C   0  0  0  0  0  0  0  0  0  0  0  0
    5.7628    0.4596    0.0000 C   0  0  0  0  0  0  0  0  0  0  0  0
    7.0445    1.2388    0.0000 C   0  0  0  0  0  0  0  0  0  0  0  0
    8.3602    0.5183    0.0000 C   0  0  0  0  0  0  0  0  0  0  0  0
    8.3940   -0.9813    0.0000 C   0  0  0  0  0  0  0  0  0  0  0  0
    9.7097   -1.7018    0.0000 C   0  0  0  0  0  0  0  0  0  0  0  0
   10.9914   -0.9227    0.0000 C   0  0  0  0  0  0  0  0  0  0  0  0
   10.9576    0.5769    0.0000 C   0  0  0  0  0  0  0  0  0  0  0  0
    9.6419    1.2974    0.0000 C   0  0  0  0  0  0  0  0  0  0  0  0
   -0.7477    1.0628    0.0000 C   0  0  0  0  0  0  0  0  0  0  0  0
   -2.0295    0.2837    0.0000 C   0  0  0  0  0  0  0  0  0  0  0  0
   -3.4662    0.7149    0.0000 S   0  0  0  0  0  0  0  0  0  0  0  0
   -6.7287    0.6412    0.0000 N   0  0  0  0  0  0  0  0  0  0  0  0
  1  2  2  0
  2  3  1  0
  4  2  1  6
  4  5  1  0
  5  6  1  0
  6  7  1  0
  7  8  1  0
  8  9  2  0
  9 10  1  0
 10 11  1  0
 11 12  2  0
 12 13  1  0
 13 14  1  0
 14 15  1  0
 15 16  1  0
 16 17  1  0
 17 18  1  0
 18 19  1  0
 19 20  2  0
 20 21  1  0
 21 22  2  0
 22 23  1  0
 23 24  2  0
 13 25  2  0
 25 26  1  0
 26 27  1  0
  7 28  2  0
 28  4  1  0
 27  8  1  0
 26 10  2  0
 24 19  1  0
M  END
>  <compound_id>  (193) 
AM31

>  <name>  (193) 
6'-(4-Phenylbutylamino)luciferin

>  <structural_class>  (193) 
6'-Aminoluciferins, acyclic N-alkyl and pendant amine

>  <subfamily>  (193) 
benzothiazole

>  <smiles>  (193) 
O=C(O)[C@H]1CSC(c2nc3ccc(NCCCCc4ccccc4)cc3s2)=N1

>  <inchi>  (193) 
InChI=1S/C21H21N3O2S2/c25-21(26)17-13-27-19(24-17)20-23-16-10-9-15(12-18(16)28-20)22-11-5-4-8-14-6-2-1-3-7-14/h1-3,6-7,9-10,12,17,22H,4-5,8,11,13H2,(H,25,26)/t17-/m1/s1

>  <inchikey>  (193) 
XQSGPRPULSQGIW-QGZVFWFLSA-N

>  <molecular_formula>  (193) 
C21H21N3O2S2

>  <iupac_name>  (193) 
D-(-)-2--Delta-2-thiazoline-4-carboxylic acid

>  <stereochemistry>  (193) 
D_enantiomer

$$$$
